237       
active_int1 Energy: -3585549.2630245
C 3.239367 2.612442 4.156946
C 3.525325 3.997915 3.629575
O 2.917520 4.986066 4.055649
N 4.504883 4.107501 2.698140
C 4.879313 5.406221 2.183593
C 3.817368 6.105091 1.332560
O 3.880839 7.305955 1.092721
N 2.842931 5.288397 0.881145
C 1.753955 5.720546 0.038889
C 0.610722 6.412734 0.792396
O -0.283708 6.975989 0.160847
C 1.177573 4.501292 -0.703401
C 0.247112 3.607765 0.123597
C 0.906408 2.787108 1.217905
N 0.110520 2.317092 2.193174
O 2.117004 2.516601 1.190751
N 0.580315 6.263882 2.131324
C -0.525157 6.800764 2.899386
C -5.231657 -2.385745 2.496524
C -4.962255 -1.137234 3.322485
O -5.661006 -0.833354 4.286558
N -3.927788 -0.385725 2.874581
C -3.459465 0.871792 3.437542
C -2.609659 0.637716 4.708305
O -2.923840 1.031687 5.825057
C -4.516978 1.969029 3.639780
C -3.813805 3.319878 3.821132
C -5.477591 2.030425 2.453490
N -1.437903 -0.010102 4.476562
C -0.517566 -0.238412 5.554114
C 0.891205 -0.491430 5.037174
O 1.268637 -0.039677 3.949313
N 1.679948 -1.182876 5.875028
C 3.092511 -1.467666 5.658504
C -3.820475 -3.833852 -1.682532
C -2.861336 -4.660814 -0.826063
O -2.571023 -5.820085 -1.145423
C -4.669665 -2.764552 -1.001582
N -2.357462 -4.063779 0.272543
C -1.442810 -4.715496 1.193090
C -1.522948 -4.009995 2.548123
C -0.489386 -4.473134 3.585141
C 0.919492 -3.955059 3.276754
C -0.930095 -4.012498 4.977980
C 0.644453 -8.633250 -0.954201
C 1.296895 -7.331986 -0.493622
C 0.930677 -6.165326 -1.406708
C 1.657966 -4.881438 -1.041711
N 1.776043 -3.971542 -2.030600
O 2.101118 -4.676216 0.091460
C 8.884343 -3.342576 1.835642
C 7.480905 -2.788496 2.086557
C 7.499009 -1.373468 2.687403
C 6.095692 -0.768915 2.699090
O 5.393017 -0.860937 3.723225
O 5.698578 -0.240056 1.598722
C -2.034866 3.639425 -4.440863
C -1.124414 2.738801 -3.615517
O -1.577702 2.028340 -2.700623
C -2.846870 4.655703 -3.607372
C -3.982274 4.012449 -2.805566
C -1.942127 5.490933 -2.699682
N 0.182492 2.734409 -3.915023
C 1.127922 1.818967 -3.312676
C 2.419841 1.828330 -4.147257
O 2.436338 2.375445 -5.251059
N 3.438404 1.181827 -3.565800
C 4.790648 1.136139 -4.091356
C 5.160447 -0.217794 -4.732609
O 5.901791 -0.258155 -5.714229
C 5.774711 1.441918 -2.932551
C 7.231833 1.415506 -3.375749
O 5.437386 2.710840 -2.398449
N 4.689679 -1.316011 -4.099579
C 5.158909 -2.659711 -4.388597
C 5.732599 -3.330306 -3.130272
C 6.882328 -2.552081 -2.538285
C 8.147870 -2.583047 -3.124902
C 6.702066 -1.734378 -1.420106
C 9.202014 -1.832304 -2.612566
C 7.739259 -0.969420 -0.901061
C 8.993421 -1.022058 -1.498579
O 9.994981 -0.257134 -0.953497
C -8.895646 -0.538666 -3.810084
C -9.107813 0.554139 -2.756909
C -8.193586 0.349204 -1.591435
C -6.826925 0.357470 -1.539420
N -8.640718 -0.009105 -0.340187
C -7.590532 -0.224249 0.440292
N -6.476659 0.002455 -0.259453
C -13.971699 -0.147882 -2.003423
C -13.961203 -1.547020 -1.389026
C -13.081188 -1.620739 -0.139771
C -11.619840 -1.271338 -0.448476
O -11.074905 -1.798849 -1.434053
O -11.065251 -0.434797 0.347929
N 3.001892 -0.212113 1.657115
C 2.608297 -1.198883 0.616587
C 3.082929 -0.679274 -0.745685
O 3.352201 0.545927 -0.826508
C 1.092049 -1.429409 0.601408
C 0.290979 -0.344426 -0.127176
C -0.996521 0.013520 0.580193
N -1.748821 0.971567 -0.007606
O -1.308753 -0.483004 1.665884
O 3.091925 -1.496608 -1.696911
O -4.024484 0.530570 -3.166850
O 5.158409 2.237023 0.494264
H -7.857362 -0.553647 -4.158760
H -0.446180 -8.529975 -0.985885
H 8.840888 -4.363250 1.439262
H 3.543894 2.577255 5.208224
H 5.775762 5.282485 1.569832
H -2.721385 2.978158 -4.984246
H 0.714102 0.803629 -3.296725
H 4.335430 -3.269293 -4.783563
H -12.963806 0.135490 -2.324216
H -14.315502 0.599227 -1.277295
H -9.547240 -0.371271 -4.675253
H -4.466841 -4.573947 -2.168622
H -1.727908 -5.768963 1.277707
H 0.889618 -9.461657 -0.279688
H 9.476918 -3.361163 2.759207
H 3.619123 -1.413845 6.613911
H 3.230782 -2.460827 5.219823
H -5.954623 -2.154841 1.708439
H -0.381709 6.526952 3.946107
H -0.576728 7.890934 2.809622
H -14.630207 -0.098356 -2.879083
H -9.143890 -1.512009 -3.378483
H 0.982097 -8.909787 -1.960857
H 5.919210 -2.573290 -5.169075
H -1.473228 6.386503 2.541770
H 3.530528 -0.740947 4.973506
H 9.414567 -2.720114 1.105246
H -0.415422 -4.687177 0.807153
H -3.226155 -3.366902 -2.478780
H -1.437358 4.177652 -5.185966
H 1.345146 2.094539 -2.275001
H 5.114090 6.084412 3.007599
H 2.165561 2.428321 4.114230
H 3.769567 1.822927 3.617876
H -14.986553 -1.847928 -1.132523
H -13.583246 -2.264108 -2.125470
H -13.453123 -0.947044 0.639566
H -13.100277 -2.640862 0.265393
H -8.929900 1.544177 -3.194211
H -10.142244 0.522460 -2.403995
H -9.702565 -0.192362 -0.053742
H -6.069395 0.567212 -2.285535
H -7.634426 -0.530009 1.474137
H -4.334561 -2.775944 2.011582
H -5.671533 -3.142387 3.149791
H -2.518373 -3.058444 0.363833
H -1.404787 -2.926510 2.396822
H -2.534540 -4.159125 2.949897
H -0.460708 -5.573078 3.578568
H -0.168312 -4.236954 5.735259
H -1.102061 -2.928648 4.972354
H -1.868800 -4.488101 5.283683
H 1.645611 -4.358427 3.993701
H 1.259611 -4.224507 2.271677
H 0.944583 -2.860289 3.362953
H 2.387238 -7.445806 -0.461590
H 0.985459 -7.091521 0.528294
H 1.148590 -6.420257 -2.452944
H -0.152678 -5.980330 -1.351552
H 6.934030 -2.767180 1.138128
H 6.925260 -3.453585 2.759412
H 7.885886 -1.409662 3.711437
H 8.161279 -0.736850 2.089355
H 6.055347 -4.343841 -3.402471
H 4.934241 -3.437138 -2.386985
H 4.081580 -1.207196 -3.285128
H 1.358698 -4.135711 -2.932363
H 2.243424 -3.076045 -1.853258
H 5.591348 1.425014 0.834998
H 4.316549 1.882707 0.146061
H -3.864501 -0.140153 -2.465675
H -3.262783 1.128164 -3.077324
H -3.588711 3.375301 -2.008598
H -4.602396 4.790145 -2.344981
H -1.094165 5.921912 -3.244781
H -2.492525 6.314332 -2.234749
H -3.303746 5.328254 -4.346952
H 0.538102 3.209955 -4.738239
H 3.340133 0.940689 -2.572224
H 0.455861 1.594728 2.824317
H -0.890249 2.417370 2.113075
H 4.890514 1.895409 -4.870543
H 5.622581 0.673450 -2.162936
H 7.531549 0.422656 -3.723261
H 7.395076 2.135019 -4.184979
H 7.864337 1.690154 -2.525536
H 8.316894 -3.201337 -4.003886
H 10.181432 -1.872723 -3.086403
H 7.558980 -0.334934 -0.040122
H 5.728549 -1.678928 -0.940464
H 10.772395 -0.303579 -1.521739
H 5.498463 2.656969 -1.427775
H 4.795653 3.290217 2.158072
H 2.925243 4.292422 1.058047
H 1.384501 5.876055 2.615864
H 4.066134 -0.179236 1.725820
H 2.681575 0.740615 1.415573
H 2.610226 -0.436166 2.580585
H 3.109928 -2.141199 0.849753
H 0.908379 -2.405052 0.146472
H 0.738085 -1.500612 1.633327
H 0.872116 0.580108 -0.238982
H 0.040961 -0.657785 -1.147396
H -1.597422 1.192198 -0.991068
H -2.720901 1.002102 0.275927
H -1.544051 4.878678 -1.883134
H -4.623569 3.387838 -3.436392
H -6.090329 1.129753 2.391641
H -6.153820 2.886244 2.554860
H -4.939754 2.144382 1.502076
H -3.259877 3.596619 2.911537
H -4.548898 4.110773 4.005376
H -3.118061 3.307515 4.664549
H -5.080952 1.734801 4.546261
H -2.758442 1.241450 2.679355
H -1.211141 -0.321617 3.534049
H -0.845435 -1.066532 6.197865
H -0.490915 0.654077 6.192903
H 1.236595 -1.591303 6.683835
H -3.416151 -0.727226 2.064578
H 0.604981 4.866512 -1.557969
H 2.014708 3.914648 -1.097329
H 2.129472 6.446574 -0.688209
H -0.216196 2.879458 -0.552755
H -0.585293 4.187046 0.538467
S -3.688241 -1.302557 -0.517202
H -5.495071 -0.258879 -0.018929
H -5.455571 -2.456849 -1.700886
H -5.173369 -3.201647 -0.131003
