237       
active_int3 Energy: -3585536.3810018
C 0.684720 -8.610678 -1.000548
C 1.256405 -7.262514 -0.576868
C 0.798912 -6.148004 -1.512612
C 1.479188 -4.824891 -1.216238
N 1.613445 -3.987354 -2.265498
O 1.883992 -4.539256 -0.086550
H -0.410967 -8.580617 -1.018373
H 0.991342 -9.408828 -0.314723
H 1.025774 -8.885010 -2.006598
H 2.352094 -7.304031 -0.561964
H 0.947531 -7.019398 0.445456
H 0.989142 -6.431481 -2.556683
H -0.287919 -6.006791 -1.421006
H 1.160336 -4.198827 -3.140208
H 1.983025 -3.039103 -2.124745
C 3.192806 2.596281 4.236875
C 3.387882 3.935511 3.564271
O 2.798356 4.949547 3.955419
N 4.287560 3.978217 2.551270
C 4.639053 5.236632 1.931292
C 3.525669 5.910754 1.129431
O 3.570910 7.105319 0.856841
N 2.524146 5.085828 0.758162
C 1.371288 5.522815 0.006985
C 0.341900 6.297051 0.836615
O -0.575114 6.893742 0.273589
C 0.661325 4.301796 -0.602340
C -0.203330 3.486836 0.365112
C 0.551060 2.685587 1.409392
N -0.148632 2.248768 2.473021
O 1.729213 2.347695 1.235710
N 0.415251 6.164727 2.176845
C -0.595634 6.772713 3.014651
C -3.809795 -3.832763 -1.688923
C -2.904877 -4.669310 -0.779150
O -2.651130 -5.835358 -1.095651
C -3.717588 -2.313423 -1.581839
N -2.458207 -4.097516 0.364290
C -1.434781 -4.729810 1.183086
C -1.720517 -4.634834 2.675728
C -0.683382 -5.397328 3.517383
C 0.750668 -4.888248 3.317134
C -1.073262 -5.389083 4.998864
C 8.882579 -3.297863 1.868454
C 7.371341 -3.062368 1.903397
C 7.002636 -1.721508 2.554557
C 5.510899 -1.413853 2.415219
O 4.691705 -2.133923 3.017076
O 5.180536 -0.432801 1.658195
C -2.065485 3.680699 -4.363251
C -1.137918 2.788215 -3.547658
O -1.469616 2.262300 -2.470217
C -3.133966 4.465765 -3.581154
C -4.271537 3.576220 -3.074180
C -2.539870 5.309804 -2.450908
N 0.078170 2.570627 -4.065894
C 1.036517 1.664776 -3.475941
C 2.347067 1.745161 -4.270936
O 2.359974 2.227057 -5.405246
N 3.393795 1.226652 -3.617212
C 4.760840 1.216701 -4.093281
C 5.189536 -0.131989 -4.706927
O 6.030787 -0.170182 -5.604146
C 5.685370 1.531457 -2.887555
C 7.162763 1.560855 -3.256616
O 5.288080 2.772380 -2.330530
N 4.655032 -1.233037 -4.129942
C 5.167876 -2.572175 -4.358699
C 5.629530 -3.218456 -3.042120
C 6.734810 -2.432799 -2.380450
C 8.045228 -2.507681 -2.854526
C 6.473392 -1.561028 -1.320763
C 9.064790 -1.746021 -2.292383
C 7.476796 -0.782098 -0.756940
C 8.775418 -0.877320 -1.242545
O 9.738036 -0.096832 -0.652362
C -8.900717 -0.548210 -3.794825
C -8.029216 0.684674 -3.508947
C -7.079675 0.529124 -2.360121
C -5.707763 0.537155 -2.300439
N -7.504461 0.393898 -1.061493
C -6.409295 0.336591 -0.281395
N -5.291570 0.421737 -0.990091
C -13.977306 -0.139427 -2.012292
C -13.614336 -0.424763 -0.553713
C -12.399896 0.363681 -0.062091
C -11.031454 -0.096638 -0.612525
O -10.957279 -1.184586 -1.217046
O -10.070301 0.700352 -0.364230
N 2.488725 -0.404949 1.456535
C 2.095967 -1.292763 0.333117
C 2.635712 -0.672632 -0.963498
O 2.992287 0.532768 -0.920752
C 0.581903 -1.538618 0.254128
C -0.264913 -0.339704 -0.174530
C -1.762620 -0.691686 -0.254868
N -2.535810 0.626702 -0.494152
O -2.246470 -1.284333 0.802428
O 2.646112 -1.398946 -1.986472
O -2.926688 0.434675 -4.520535
O 4.883266 2.017790 0.470104
H -8.273236 -1.412456 -4.043590
H 9.121888 -4.268408 1.418902
H 2.143999 2.471437 4.507670
H 5.480452 5.055966 1.256378
H -2.558409 3.008462 -5.077640
H 0.669098 0.629759 -3.508663
H 4.392365 -3.197441 -4.819919
H -13.137653 -0.402507 -2.663061
H -14.206069 0.924446 -2.159786
H -9.562737 -0.350654 -4.646159
H -4.844911 -4.130163 -1.476213
H -1.382871 -5.779961 0.881683
H 9.312459 -3.276815 2.878291
H -0.389065 6.505352 4.052747
H -0.596336 7.863194 2.911681
H -14.853029 -0.719708 -2.328925
H -9.521000 -0.808769 -2.929320
H 5.996819 -2.482779 -5.065143
H -1.589499 6.408185 2.735191
H 9.378261 -2.520071 1.275556
H -0.463927 -4.278735 0.947288
H -3.593826 -4.168070 -2.707558
H -1.448472 4.378225 -4.943522
H 1.203834 1.911375 -2.423178
H 4.952312 5.957434 2.690729
H 3.505400 1.754925 3.612985
H 3.785378 2.587670 5.158527
H -14.478537 -0.190683 0.085567
H -13.404607 -1.493738 -0.440105
H -12.512218 1.432749 -0.283996
H -12.328003 0.293890 1.031712
H -7.436568 0.944799 -4.394837
H -8.685134 1.540472 -3.304853
H -8.523140 0.409673 -0.757729
H -4.996657 0.638909 -3.111404
H -6.453998 0.244226 0.794460
H -2.519996 -3.082118 0.477971
H -1.757332 -3.577824 2.977555
H -2.719987 -5.044219 2.872959
H -0.707936 -6.444038 3.178651
H -0.367767 -5.980314 5.594750
H -1.080273 -4.369341 5.405442
H -2.076896 -5.802413 5.149793
H 1.446986 -5.438481 3.961161
H 1.100892 -4.996617 2.285852
H 0.843858 -3.825307 3.575850
H 6.985843 -3.084557 0.878155
H 6.866693 -3.868711 2.447100
H 7.247640 -1.762968 3.623806
H 7.589908 -0.914139 2.106625
H 5.965013 -4.240414 -3.261950
H 4.770787 -3.302879 -2.365815
H 3.931851 -1.125770 -3.416025
H 5.275357 1.205310 0.854705
H 4.053242 1.671317 0.082621
H -2.533371 0.104726 -3.693817
H -3.107634 -0.361477 -5.032886
H -3.919183 2.880026 -2.309470
H -5.070290 4.184062 -2.634155
H -1.691807 5.916964 -2.788327
H -3.290249 5.992248 -2.038310
H -3.566096 5.157612 -4.318823
H 0.354014 2.950155 -4.965053
H 3.253164 0.991953 -2.628023
H 0.286268 1.600988 3.131939
H -1.037873 2.656687 2.718688
H 4.877940 1.979071 -4.867336
H 5.521003 0.738596 -2.146174
H 7.512607 0.588022 -3.612596
H 7.342746 2.306126 -4.038501
H 7.740781 1.834730 -2.368113
H 8.277015 -3.170892 -3.685087
H 10.080064 -1.822861 -2.677806
H 7.245460 -0.101798 0.054544
H 5.466574 -1.476053 -0.919535
H 10.561746 -0.184035 -1.145638
H 5.285307 2.668690 -1.362299
H 4.550069 3.125741 2.052200
H 2.605081 4.095185 0.961827
H 1.251099 5.778426 2.607008
H 3.550531 -0.427991 1.579262
H 2.225280 0.577746 1.279784
H 2.078227 -0.670443 2.356473
H 2.579170 -2.260118 0.498140
H 0.429688 -2.362210 -0.448222
H 0.233461 -1.901956 1.228415
H -0.182502 0.450158 0.581221
H 0.086725 0.078152 -1.125721
H -2.180615 1.165727 -1.303851
H -2.426378 1.211244 0.337808
H -2.194305 4.673060 -1.630718
H -4.704033 2.980510 -3.884696
H 0.007480 4.655968 -1.400806
H 1.416098 3.652573 -1.057500
H 1.695148 6.193064 -0.794426
H -0.732388 2.748061 -0.250615
H -0.971090 4.112468 0.835512
S -2.043751 -1.644016 -1.900933
H -3.589483 0.466388 -0.629339
H -4.418706 -1.852787 -2.280634
H -4.008036 -1.969585 -0.585045
C -5.241600 -2.437071 2.500815
C -4.782757 -1.237203 3.309925
O -5.047107 -1.084771 4.498060
N -4.059390 -0.341082 2.584287
C -3.323134 0.757762 3.184942
C -2.267466 0.255631 4.198842
O -2.125056 0.735019 5.315784
C -4.189788 1.897834 3.751469
C -3.365578 3.188440 3.829158
C -5.440784 2.117966 2.900174
N -1.478738 -0.754344 3.734573
C -0.617053 -1.463868 4.635912
C 0.841120 -0.986702 4.681854
O 1.241280 -0.011121 4.038704
N 1.635691 -1.724975 5.478973
C 3.069128 -1.498626 5.695419
H 3.362824 -2.042774 6.595227
H 3.658831 -1.832624 4.834539
H -5.912678 -3.045750 3.107589
H 3.236876 -0.429558 5.849623
H -5.759816 -2.117986 1.590041
H -4.379890 -3.041962 2.193835
H -6.125819 1.269516 2.971124
H -5.976719 3.010149 3.242074
H -5.190103 2.262586 1.841198
H -3.087770 3.531585 2.819577
H -3.951125 3.994328 4.283713
H -2.463865 3.056458 4.435593
H -4.490166 1.612918 4.763689
H -2.742145 1.176668 2.350519
H -1.607315 -1.081808 2.775447
H -0.621319 -2.523111 4.367450
H -1.032248 -1.373245 5.645658
H 1.230556 -2.557777 5.880609
H -3.644289 -0.699867 1.719392
