237       
active_ES Energy: -3585550.1435646
C 3.192580 2.596420 4.237850
C 3.354050 3.941340 3.564360
O 2.727400 4.935380 3.949300
N 4.260110 4.013010 2.559430
C 4.579960 5.277220 1.933640
C 3.466800 5.905860 1.094970
O 3.496260 7.093900 0.792250
N 2.483620 5.055470 0.734680
C 1.310430 5.463850 -0.000740
C 0.311250 6.277450 0.827580
O -0.610630 6.870600 0.268100
C 0.568070 4.221730 -0.530180
C -0.284120 3.472870 0.500360
C 0.499050 2.671410 1.524440
N -0.177320 2.197150 2.578900
O 1.691650 2.381440 1.340010
N 0.409580 6.172160 2.167620
C -0.595550 6.773550 3.014470
C -5.241650 -2.438330 2.501620
C -4.738800 -1.268830 3.327810
O -4.918710 -1.163880 4.536600
N -4.058220 -0.349190 2.597870
C -3.333310 0.778190 3.153990
C -2.307870 0.336640 4.227000
O -2.175330 0.913010 5.298420
C -4.226440 1.936360 3.648030
C -3.426090 3.244230 3.667020
C -5.466640 2.089520 2.766200
N -1.520650 -0.717790 3.869820
C -0.670120 -1.355650 4.833120
C 0.813920 -0.968440 4.765280
O 1.222570 -0.030720 4.072110
N 1.624200 -1.714650 5.537040
C 3.068230 -1.500160 5.695840
C -3.809650 -3.832910 -1.688790
C -2.841640 -4.643090 -0.828680
O -2.599410 -5.814300 -1.127530
C -3.610140 -2.333470 -1.833240
N -2.370000 -4.057040 0.297310
C -1.434610 -4.729670 1.183940
C -1.785240 -4.570330 2.658530
C -0.818110 -5.345940 3.567960
C 0.624740 -4.832770 3.472240
C -1.315650 -5.345040 5.016450
C 0.683920 -8.610950 -0.999050
C 1.247750 -7.275250 -0.523620
C 0.821140 -6.134450 -1.442150
C 1.478500 -4.813340 -1.085490
N 1.599700 -3.930280 -2.096760
O 1.869400 -4.563180 0.058290
C 8.882110 -3.297330 1.869060
C 7.389890 -2.993350 1.970720
C 7.122490 -1.625120 2.611720
C 5.652780 -1.236910 2.486790
O 4.798560 -1.925670 3.078430
O 5.369660 -0.231930 1.743610
C -2.065270 3.680600 -4.362930
C -1.172170 2.712320 -3.595580
O -1.605690 1.973400 -2.698360
C -3.163330 4.395630 -3.551050
C -4.313880 3.471170 -3.146630
C -2.601970 5.133540 -2.334030
N 0.116860 2.665020 -3.965760
C 1.048210 1.698760 -3.428180
C 2.369280 1.804970 -4.202040
O 2.398340 2.351960 -5.305540
N 3.401310 1.226170 -3.574990
C 4.765540 1.215860 -4.062780
C 5.180740 -0.131560 -4.685490
O 5.995220 -0.167390 -5.606790
C 5.706350 1.541290 -2.874440
C 7.180130 1.532950 -3.259490
O 5.334780 2.804810 -2.353750
N 4.662940 -1.236000 -4.098690
C 5.168900 -2.572380 -4.357770
C 5.656810 -3.237510 -3.060250
C 6.764580 -2.453550 -2.400370
C 8.071520 -2.515530 -2.885180
C 6.506780 -1.595470 -1.328470
C 9.091200 -1.755890 -2.319960
C 7.509740 -0.819630 -0.759960
C 8.805570 -0.903350 -1.255980
O 9.768760 -0.127350 -0.661370
C -8.900720 -0.548020 -3.795080
C -7.930980 0.607100 -3.487150
C -7.038410 0.398140 -2.297970
C -5.668020 0.423600 -2.155010
N -7.527800 0.217170 -1.029970
C -6.471100 0.155310 -0.195380
N -5.313990 0.273100 -0.828630
C -13.977450 -0.139470 -2.012170
C -13.637910 -0.516180 -0.569020
C -12.411040 0.215300 -0.024180
C -11.052380 -0.234650 -0.604710
O -10.992200 -1.298380 -1.251430
O -10.080740 0.543250 -0.334850
N 2.681920 -0.259610 1.600260
C 2.273610 -1.197720 0.525420
C 2.765730 -0.631300 -0.815580
O 3.066320 0.590340 -0.844850
C 0.753570 -1.424480 0.518620
C -0.051710 -0.302440 -0.138690
C -1.535360 -0.378590 0.165350
N -2.331670 0.524840 -0.413470
O -1.991900 -1.246350 0.940500
O 2.785990 -1.407740 -1.799740
O -5.144100 -1.525130 -4.942540
O 4.956960 2.138860 0.445830
H -8.347730 -1.459710 -4.051060
H -0.410670 -8.576520 -1.047120
H 9.057940 -4.287910 1.434010
H 3.704910 2.636880 5.205330
H 5.445300 5.120500 1.283790
H -2.534600 3.095570 -5.165790
H 0.656470 0.679590 -3.545730
H 4.384370 -3.190380 -4.813480
H -13.137410 -0.385740 -2.668930
H -14.178820 0.936370 -2.100870
H -9.529870 -0.283840 -4.652320
H -4.801960 -3.987270 -1.244190
H -1.444130 -5.788510 0.911440
H 0.969120 -9.427490 -0.325830
H 9.362540 -3.271300 2.855830
H 3.250150 -0.448280 5.933560
H 3.407900 -2.121410 6.526390
H -5.700580 -2.101530 1.566470
H -0.364020 6.525770 4.052060
H -0.617850 7.862040 2.895250
H -14.863190 -0.678950 -2.370230
H -9.550880 -0.771180 -2.941430
H 1.052500 -8.859850 -2.001870
H 5.983490 -2.471870 -5.079220
H -1.588670 6.387300 2.761030
H 3.617380 -1.759740 4.784870
H 9.381410 -2.557020 1.232780
H -0.422700 -4.356640 0.991170
H -3.835870 -4.319660 -2.667850
H -1.429900 4.430390 -4.850030
H 1.206620 1.856850 -2.356520
H 4.846590 6.016170 2.693480
H 2.135390 2.405920 4.423630
H 3.611750 1.772200 3.654600
H -14.502980 -0.298660 0.074870
H -13.453300 -1.594380 -0.514690
H -12.502830 1.298540 -0.174460
H -12.342390 0.070330 1.062570
H -7.289570 0.803960 -4.355520
H -8.515850 1.520290 -3.316500
H -8.558600 0.233490 -0.759870
H -4.920440 0.594520 -2.920080
H -6.583000 0.040570 0.873550
H -4.402590 -3.094500 2.239810
H -5.968420 -3.006200 3.083390
H -2.429750 -3.049180 0.405660
H -1.780750 -3.503910 2.930390
H -2.809500 -4.930020 2.823210
H -0.819720 -6.390700 3.222680
H -0.647110 -5.926130 5.662790
H -1.370020 -4.326600 5.422010
H -2.320860 -5.774460 5.092610
H 1.274950 -5.377100 4.167620
H 1.048350 -4.944140 2.469170
H 0.687740 -3.767690 3.731140
H 2.342360 -7.321520 -0.477530
H 0.909610 -7.058190 0.495450
H 1.052320 -6.385440 -2.486180
H -0.269290 -6.003530 -1.388880
H 6.954580 -3.014520 0.965660
H 6.873210 -3.764200 2.552760
H 7.383840 -1.668130 3.676890
H 7.748440 -0.859870 2.142560
H 5.997920 -4.252210 -3.303400
H 4.809850 -3.340890 -2.371820
H 3.977470 -1.133400 -3.348760
H 1.185000 -4.120980 -2.994990
H 2.007400 -3.003370 -1.929910
H 5.401630 1.361920 0.842760
H 4.143640 1.738190 0.073230
H -4.243500 -1.683660 -4.619850
H -5.640840 -1.217540 -4.170940
H -3.986830 2.737280 -2.406980
H -5.133720 4.049070 -2.705860
H -1.752870 5.777380 -2.589350
H -3.367910 5.767190 -1.875560
H -3.571630 5.148860 -4.240000
H 0.459660 3.175990 -4.772200
H 3.267100 0.978540 -2.587940
H 0.263010 1.532040 3.216270
H -1.109260 2.520910 2.786140
H 4.871450 1.977400 -4.838980
H 5.535710 0.771870 -2.109240
H 7.509140 0.543310 -3.588430
H 7.364650 2.249840 -4.066310
H 7.772600 1.823940 -2.386100
H 8.300740 -3.166700 -3.725860
H 10.103930 -1.822330 -2.713860
H 7.279760 -0.152840 0.063500
H 5.499950 -1.520650 -0.925370
H 10.589760 -0.203820 -1.160930
H 5.343080 2.736500 -1.382110
H 4.558640 3.170710 2.065580
H 2.564690 4.074160 0.980340
H 1.238770 5.767050 2.593560
H 3.745220 -0.233870 1.677930
H 2.351750 0.702670 1.419450
H 2.321810 -0.530400 2.521510
H 2.765860 -2.153710 0.723290
H 0.558170 -2.366940 0.001680
H 0.423110 -1.568940 1.553490
H 0.316300 0.681270 0.165740
H 0.071700 -0.337010 -1.227930
H -1.969630 1.125340 -1.153490
H -3.360680 0.430450 -0.374490
H -2.273410 4.421000 -1.570000
H -4.715360 2.925430 -4.008680
H -6.148940 1.244300 2.886820
H -6.012710 2.998980 3.039700
H -5.201870 2.160190 1.703770
H -3.121550 3.525930 2.647120
H -4.040420 4.065510 4.050810
H -2.543560 3.170210 4.310280
H -4.538200 1.703510 4.670580
H -2.748450 1.153280 2.302490
H -1.634130 -1.119210 2.942050
H -0.757280 -2.441320 4.727250
H -1.036930 -1.085370 5.829270
H 1.212160 -2.509190 6.003040
H -3.786570 -0.627500 1.663530
H -0.095090 4.549780 -1.331420
H 1.303810 3.540040 -0.968410
H 1.610150 6.094480 -0.842490
H -0.905560 2.741990 -0.033170
H -0.988020 4.146040 1.002480
S -2.198170 -1.971170 -2.946060
H -2.219360 -0.631900 -2.810100
H -4.514490 -1.899460 -2.258810
H -3.460740 -1.844830 -0.871050
