237       
inactive_TS4 Energy: -3585505.2523404
C 0.131258 7.050330 7.018344
C -0.108300 8.381728 6.341527
O -0.924278 9.207766 6.745528
N 0.655801 8.610889 5.236512
C 0.531238 9.831470 4.473452
C -0.726030 9.975418 3.612101
O -0.980052 11.055158 3.087088
N -1.484775 8.865997 3.496058
C -2.697078 8.824920 2.710498
C -3.974208 8.982342 3.559546
O -5.081347 8.850352 3.041424
C -2.765131 7.598941 1.787845
C -2.733966 6.204886 2.453392
C -1.344425 5.722276 2.843275
N -0.789073 4.792956 2.055551
O -0.750866 6.173318 3.839862
N -3.806749 9.327771 4.852371
C -4.942284 9.678284 5.683483
C -4.455405 -5.190576 4.396329
C -3.959751 -3.964746 3.656579
O -4.040123 -3.895297 2.431555
N -3.403141 -3.000006 4.423585
C -2.750423 -1.823576 3.882828
C -1.494388 -1.575976 4.713485
O -1.474504 -1.772612 5.928030
C -3.676151 -0.574648 3.906121
C -2.943852 0.697026 3.461061
C -4.896533 -0.806848 3.011942
N -0.434440 -1.067032 4.040275
C 0.704551 -0.512179 4.733003
C 1.796710 -1.540095 5.040709
O 2.032825 -2.473155 4.273126
N 2.500715 -1.315930 6.167769
C 3.719771 -2.037952 6.506728
C -3.361976 -4.112093 -1.711054
C -2.116136 -4.731819 -1.061109
O -1.288617 -5.350938 -1.738418
C -3.482357 -2.612311 -1.425570
N -1.956372 -4.548834 0.267194
C -0.759637 -5.014946 0.956076
C -0.815934 -4.739989 2.451994
C 0.168161 -5.589737 3.265134
C 1.615965 -5.431935 2.793300
C 0.032737 -5.252570 4.752118
C 2.523065 -7.677272 -1.853411
C 2.879593 -6.225227 -1.545880
C 2.120113 -5.245090 -2.436080
C 2.603539 -3.811913 -2.265488
N 1.740603 -2.844838 -2.660051
O 3.723539 -3.545341 -1.828063
C 9.693767 -1.797207 2.830751
C 8.208295 -1.726418 2.447504
C 7.386098 -0.885718 3.424206
C 5.889904 -0.747124 3.104207
O 5.401075 -1.493768 2.210938
O 5.249037 0.110916 3.774606
C -2.897545 3.983430 -2.584610
C -1.698095 3.788452 -1.662051
O -1.795544 3.719356 -0.426181
C -4.130535 4.656551 -1.961584
C -4.828589 3.791971 -0.905657
C -3.803120 6.053501 -1.425871
N -0.508350 3.605433 -2.268450
C 0.699630 3.294027 -1.538342
C 1.918288 3.493481 -2.441354
O 1.828210 4.151978 -3.476745
N 3.043549 2.938495 -1.959540
C 4.375757 3.356870 -2.352268
C 5.206361 2.302197 -3.104321
O 6.167681 2.671172 -3.780743
C 5.113760 3.780504 -1.062951
C 6.574518 4.163409 -1.244903
O 4.357403 4.875691 -0.541315
N 4.874726 1.013787 -2.900768
C 5.749072 -0.086408 -3.269493
C 6.242311 -0.842420 -2.023252
C 7.016397 0.033608 -1.067386
C 8.368927 0.305673 -1.275186
C 6.400747 0.617621 0.043628
C 9.089170 1.121208 -0.405833
C 7.102101 1.435898 0.922143
C 8.451465 1.685225 0.696304
O 9.112830 2.494420 1.588589
C -8.711086 -1.474856 -3.779801
C -8.081486 -0.104481 -3.494373
C -7.208575 -0.096818 -2.279618
C -5.866321 0.134543 -2.094945
N -7.707084 -0.356491 -1.029273
C -6.677188 -0.269787 -0.160757
N -5.536589 0.026469 -0.760010
C -13.879028 -2.174809 -2.729096
C -13.704498 -2.159978 -1.208806
C -12.693025 -1.123693 -0.714755
C -11.202970 -1.451283 -0.974779
O -10.903301 -2.574921 -1.425985
O -10.399497 -0.512039 -0.675737
N 2.785340 -1.224938 1.793405
C 2.309211 -1.348018 0.394265
C 2.632569 -0.074362 -0.407981
O 2.914045 0.982010 0.221159
C 0.797016 -1.672426 0.325689
C -0.145465 -0.490815 0.025797
C -1.566149 -1.024293 -0.062153
N -2.592861 0.784384 -0.409844
O -2.118081 -1.496178 0.922476
O 2.536872 -0.184426 -1.653124
O 2.902211 1.318158 3.056591
O -1.916538 1.015278 -3.482305
H -12.922192 -2.402638 -3.208668
H -7.930531 -2.225291 -3.952993
H 1.448350 -7.853762 -1.727670
H 10.257618 -2.406722 2.115405
H -0.407387 7.030471 7.966035
H -3.152589 2.979735 -2.948512
H -9.340491 -1.424770 -4.676594
H -14.223932 -1.198333 -3.094778
H -5.456456 10.561071 5.288512
H -4.579370 9.887415 6.691362
H 1.399492 9.926990 3.815817
H 5.207320 -0.781617 -3.920560
H 0.669580 2.273355 -1.138767
H -4.265441 -4.610689 -1.338831
H -0.654888 -6.093890 0.777732
H -3.759296 -6.013130 4.199779
H 3.603920 -3.078942 6.200935
H 3.869842 -1.989777 7.587628
H 9.828852 -2.235065 3.828320
H 3.060104 -8.366435 -1.191739
H -14.611307 -2.929888 -3.041738
H -9.334293 -1.815945 -2.945982
H -3.278645 -4.308750 -2.782115
H 0.122051 -4.547081 0.500227
H 2.782640 -7.934516 -2.888009
H 10.140342 -0.794911 2.844957
H -5.661085 8.854358 5.718675
H 4.580875 -1.605754 5.984887
H 0.812194 3.970928 -0.682866
H -2.568484 4.551000 -3.465297
H 6.584432 0.338785 -3.830473
H 0.534461 10.684763 5.155812
H -4.532867 -5.046657 5.478149
H -5.430056 -5.473945 3.993533
H 4.281167 4.221046 -3.014270
H -2.686373 9.716623 2.073400
H -0.237893 6.247275 6.370097
H 1.198502 6.883222 7.193975
H -14.679134 -1.964410 -0.736720
H -13.376184 -3.151491 -0.878564
H -12.901875 -0.137945 -1.151198
H -12.794023 -0.992318 0.370920
H -7.478738 0.225357 -4.349715
H -8.882624 0.634069 -3.363311
H -8.725801 -0.532680 -0.827110
H -6.799556 -0.433798 0.900280
H -5.120228 0.382616 -2.840943
H -2.643000 -4.028452 0.805786
H -0.636023 -3.674127 2.651015
H -1.827371 -4.959078 2.805582
H -0.121317 -6.642862 3.123074
H 0.667931 -5.902793 5.365519
H 0.333893 -4.216078 4.937264
H -1.004400 -5.370290 5.091522
H 2.291930 -6.039321 3.406405
H 1.742146 -5.747980 1.751761
H 1.939274 -4.390860 2.887091
H -3.311773 -3.132539 5.421650
H -2.492874 -2.032378 2.843696
H -5.472276 -1.682304 3.324204
H -5.558509 0.065905 3.051960
H -4.586372 -0.959001 1.972475
H -4.010162 -0.442355 4.945374
H -2.508488 0.551177 2.465723
H -3.652742 1.529257 3.396585
H -2.147522 0.991752 4.152163
H -0.534080 -0.930333 3.043468
H 0.353237 -0.038808 5.655551
H 1.171216 0.260186 4.107628
H 2.292388 -0.476363 6.685970
H 3.954703 -6.060549 -1.666806
H 2.653986 -6.002130 -0.495477
H 2.269928 -5.509740 -3.493213
H 1.040231 -5.308538 -2.249136
H 0.768996 -3.067540 -2.827804
H 1.996005 -1.874151 -2.459907
H 6.868625 -1.677488 -2.360736
H 5.382080 -1.295074 -1.517677
H 8.876143 -0.129537 -2.133406
H 5.352094 0.422076 0.241500
H 6.614135 1.860433 1.794477
H 10.144891 1.315598 -0.588136
H 10.031245 2.583165 1.309227
H 7.784739 -2.735171 2.393950
H 8.108683 -1.303744 1.441494
H 7.457612 -1.303717 4.439479
H 7.794455 0.130226 3.493032
H 3.858260 -1.317262 1.899049
H 2.567550 -0.300524 2.204054
H 2.388924 -1.934344 2.424320
H 2.873452 -2.169635 -0.055408
H 0.651822 -2.422628 -0.454434
H 0.489901 -2.151581 1.263849
H -0.113499 0.264109 0.820143
H 0.142272 -0.006615 -0.911937
H -2.447085 1.566307 0.226529
H -2.428040 1.141253 -1.351228
H 2.968085 2.361537 -1.114726
H -0.379767 3.840826 -3.245560
H -4.836842 4.779651 -2.794512
H -4.204870 3.680567 -0.014876
H -5.776522 4.254379 -0.607647
H -3.368007 6.691505 -2.204950
H -4.705773 6.547764 -1.049075
H -3.084776 5.991291 -0.601667
H -5.053095 2.788831 -1.284091
H 5.052181 2.935241 -0.363127
H 7.171294 3.308711 -1.570485
H 6.675014 4.962796 -1.984873
H 6.977933 4.507684 -0.284183
H -3.707088 7.679195 1.239623
H -1.955509 7.674440 1.052926
H -3.183109 5.486921 1.759493
H -3.349876 6.208258 3.359715
H 0.139139 4.468911 2.291122
H -1.220905 4.427155 1.205865
H 1.132741 7.821173 4.824174
H -2.870622 9.422859 5.225283
H -1.151659 7.982859 3.885089
S -1.916676 -1.738069 -1.746613
H -3.584419 0.495261 -0.360900
H -4.271957 -2.157492 -2.026569
H -3.719850 -2.411937 -0.375353
H 3.775249 0.950360 3.356957
H 3.031296 1.544074 2.117432
H -0.966204 1.173216 -3.541100
H -2.004031 0.082580 -3.211627
H 3.999708 0.775535 -2.430161
H 4.715983 5.092803 0.326820
