237       
inactive_fGln123_TS2 Energy: -3585513.4826166
H 5.426754 1.383429 0.621742
H 4.212221 1.610985 -0.266251
H -2.643196 -0.298343 -3.474686
H -2.681137 1.194097 -3.206091
N 1.398883 -3.893164 -2.154292
C 0.683921 -8.611231 -0.998826
C 1.195167 -7.252012 -0.521984
C 0.727282 -6.112069 -1.424869
C 1.470602 -4.808391 -1.163085
O 2.127910 -4.623993 -0.135601
H -0.411536 -8.626183 -1.040530
H 1.009341 -9.415193 -0.328562
H 1.058186 -8.839893 -2.004380
H 2.290136 -7.255903 -0.485312
H 0.861655 -7.059573 0.504325
H 0.872024 -6.382584 -2.479255
H -0.351565 -5.941796 -1.301961
H 0.638034 -3.932391 -2.818265
H 1.850816 -2.985528 -2.019913
C 8.882932 -3.299291 1.872839
C 7.394403 -2.958935 1.898404
C 7.125936 -1.574694 2.503080
C 5.647186 -1.211109 2.399885
O 4.831877 -1.828308 3.112666
O 5.318510 -0.309517 1.550588
H 9.055173 -4.300642 1.461532
H 9.315475 -3.268579 2.881361
H 9.430282 -2.581531 1.249943
H 7.003500 -2.987988 0.875079
H 6.836826 -3.707670 2.472031
H 7.409442 -1.584399 3.563152
H 7.733317 -0.820268 1.993842
N 0.118969 2.668123 -4.013920
N 3.431572 1.261969 -3.670360
N 4.669696 -1.225594 -4.152679
C -2.064950 3.680232 -4.359607
C -1.078169 2.919946 -3.480586
C -3.065136 4.582263 -3.612592
C -4.149808 3.796445 -2.867278
C -2.359407 5.581781 -2.690574
C 1.113621 1.831801 -3.380908
C 2.375345 1.839449 -4.256483
C 4.770567 1.218277 -4.223138
C 5.151762 -0.151398 -4.815204
C 5.772027 1.565555 -3.091009
C 7.228311 1.511742 -3.535683
C 5.169021 -2.572044 -4.356485
C 5.662785 -3.179984 -3.033584
C 6.797558 -2.388160 -2.431464
C 8.090337 -2.490498 -2.947017
C 6.582213 -1.487134 -1.385598
C 9.136748 -1.727155 -2.438682
C 7.612887 -0.707056 -0.874329
C 8.893081 -0.829931 -1.401323
O -1.389317 2.509428 -2.345135
O 2.345910 2.329856 -5.387379
O 5.928083 -0.224067 -5.768044
O 5.456578 2.848713 -2.586101
O 9.886147 -0.046642 -0.865240
H -2.611341 2.916193 -4.928578
H 0.748025 0.801079 -3.284492
H 4.378372 -3.207215 -4.775917
H 5.978601 -2.509240 -5.087959
H -1.503706 4.279541 -5.087090
H 1.340336 2.190876 -2.373072
H 5.979844 -4.212409 -3.230081
H 4.824111 -3.231551 -2.329681
H 3.975386 -1.098582 -3.414640
H -3.723932 3.231435 -2.033689
H -4.911345 4.477624 -2.469653
H -1.604552 6.163077 -3.233294
H -3.080203 6.285111 -2.257420
H -3.571261 5.160756 -4.398341
H 0.367823 2.970424 -4.950739
H 3.314775 1.014272 -2.682286
H 4.844440 1.954813 -5.026379
H 5.624825 0.821055 -2.296346
H 7.526546 0.502967 -3.834068
H 7.394574 2.189933 -4.379387
H 7.857692 1.827510 -2.697647
H 8.286445 -3.177472 -3.767481
H 10.137645 -1.825425 -2.856036
H 7.415582 -0.002788 -0.074244
H 5.590669 -1.380402 -0.952877
H 10.689929 -0.159775 -1.385288
H 5.427078 2.770092 -1.612813
H -1.856339 5.059272 -1.869542
H -4.648991 3.083181 -3.531761
N -7.538958 0.533483 -1.059167
N -5.375368 0.398978 -1.136231
C -8.900542 -0.548507 -3.794502
C -8.177405 0.767560 -3.481850
C -7.170455 0.627140 -2.385700
C -5.808440 0.534774 -2.435718
C -6.440825 0.398337 -0.326053
H -8.181796 -1.317987 -4.097655
H -9.611172 -0.401145 -4.615588
H -9.456975 -0.904343 -2.920986
H -7.657390 1.139630 -4.371741
H -8.911523 1.527231 -3.190279
H -8.615389 0.621359 -0.727228
H -5.088202 0.542435 -3.245715
H -6.398278 0.314301 0.748800
C -13.978176 -0.139021 -2.012446
C -13.524546 -0.174980 -0.549774
C -12.316212 0.713594 -0.239242
C -10.940997 0.158466 -0.652210
O -10.846199 -0.976060 -1.142021
O -9.965901 0.963685 -0.420158
H -13.168256 -0.477104 -2.666805
H -14.259378 0.878896 -2.312398
H -14.844598 -0.790960 -2.175245
H -14.362976 0.136659 0.089135
H -13.277163 -1.206377 -0.276709
H -12.429370 1.703976 -0.699607
H -12.255714 0.899693 0.840654
O -3.068842 0.533647 -3.799698
N -4.053639 -0.349350 2.716993
N -1.597280 -0.876546 4.071204
N 1.621752 -1.708602 5.661190
C -5.242092 -2.438879 2.500929
C -4.863270 -1.244514 3.356471
C -3.338235 0.708739 3.420601
C -2.396136 0.135321 4.508525
C -4.225662 1.850812 3.948373
C -3.375482 3.104387 4.180632
C -5.368025 2.155478 2.978069
C -0.686144 -1.536718 4.958152
C 0.784294 -1.138098 4.774123
C 3.068130 -1.502437 5.699200
O -5.267881 -1.082805 4.501216
O -2.358233 0.561695 5.654920
O 1.148938 -0.387915 3.869131
H 3.511226 -2.306210 6.290096
H 3.494316 -1.540288 4.692564
H -5.810101 -3.146025 3.106082
H 3.309918 -0.537727 6.159047
H -5.860309 -2.122950 1.652763
H -4.354959 -2.935054 2.089183
H -6.079324 1.327001 2.925255
H -5.916133 3.045720 3.305076
H -4.992848 2.352073 1.963102
H -2.936234 3.449965 3.233931
H -3.991919 3.918303 4.578914
H -2.563444 2.914359 4.886475
H -4.649124 1.527666 4.903331
H -2.668085 1.141279 2.661379
H -1.588204 -1.114749 3.082709
H -0.759927 -2.620394 4.818105
H -0.999881 -1.306502 5.980854
H 1.205028 -2.276256 6.383477
H -3.555729 -0.714642 1.903512
O 4.999377 2.074564 0.081816
N 0.629733 8.708602 5.317141
N -1.446540 8.986403 3.488146
N -0.887467 4.930718 1.933370
N -3.790797 9.365327 4.857120
C 0.132934 7.048172 7.019498
C -0.179764 8.372980 6.359901
C 0.487552 9.964495 4.616379
C -0.735147 10.112291 3.707964
C -2.657091 8.976119 2.698725
C -3.939259 9.154514 3.535667
C -2.764457 7.737279 1.799039
C -2.761605 6.371445 2.525437
C -1.363028 5.845726 2.801085
C -4.940102 9.676142 5.684911
O -1.097628 9.107882 6.721096
O -1.008618 11.211523 3.238100
O -5.036416 9.125702 2.980543
O -0.678261 6.255754 3.745123
H -0.415005 6.981025 7.959581
H -5.408361 10.612970 5.365015
H -4.603429 9.769837 6.718784
H 1.379891 10.129916 4.007029
H -5.688257 8.881237 5.615383
H 0.423983 10.779988 5.341534
H -2.624563 9.860454 2.053651
H -0.186613 6.235054 6.357653
H 1.205509 6.936893 7.205059
H -3.709872 7.831877 1.259727
H -1.958303 7.767398 1.057166
H -3.315817 5.647078 1.920232
H -3.284217 6.445055 3.485045
H 0.048849 4.573442 2.060666
H -1.425884 4.592430 1.151335
H 1.240951 7.998754 4.940832
H -2.864262 9.394020 5.266910
H -1.108902 8.100539 3.862309
N -2.424563 -4.067279 0.348574
C -3.809101 -3.832873 -1.689093
C -2.998586 -4.693248 -0.716541
C -3.545633 -2.327911 -1.675370
C -1.433947 -4.729217 1.183028
C -1.725816 -4.642262 2.676876
C -0.715714 -5.450144 3.508251
C 0.713955 -4.903052 3.403184
C -1.164028 -5.553394 4.969106
O -2.928721 -5.912731 -0.884220
S -1.836087 -1.859149 -2.111123
H -4.867760 -4.031128 -1.466494
H -1.411759 -5.779481 0.878253
H -0.449651 -4.300292 0.959726
H -3.611018 -4.241902 -2.683640
H -2.331900 -3.058267 0.302983
H -1.725802 -3.589600 2.997455
H -2.739359 -5.023531 2.857981
H -0.708498 -6.471132 3.097582
H -0.465612 -6.164730 5.553064
H -1.215720 -4.565180 5.443775
H -2.160233 -6.003397 5.048274
H 1.101078 -4.925911 2.379378
H 0.771540 -3.864025 3.753010
H 1.399214 -5.491577 4.024649
H -4.250078 -1.861110 -2.372638
H -3.791143 -1.925435 -0.678446
N 2.653018 -0.309511 1.472256
C 2.219313 -1.231186 0.388635
C 2.684149 -0.619956 -0.941415
O 2.778333 -1.378616 -1.927980
C 0.700624 -1.450589 0.389992
C -0.110803 -0.225899 -0.023695
C -1.603749 -0.410259 0.146829
N -2.448429 0.629184 -0.303353
O -2.047738 -1.160771 1.039031
O 2.883485 0.629420 -0.944628
H 2.715668 -2.191563 0.550080
H 0.470601 -2.269738 -0.296763
H 0.396935 -1.778879 1.390462
H 0.130000 0.631706 0.628465
H 0.111918 0.090679 -1.044953
H -2.006335 1.257577 -0.975649
H -2.832351 1.142615 0.486529
H 3.725829 -0.324019 1.564234
H 2.403687 0.646050 1.208577
H 2.236369 -0.526274 2.389028
H -4.386714 0.299176 -0.868263
