237       
inactive_TS2 Energy: -3585508.6279962
C 0.131201 7.050418 7.018374
C -0.103113 8.344275 6.270605
O -0.894683 9.206905 6.645985
N 0.639287 8.497504 5.138994
C 0.527976 9.684430 4.322681
C -0.763648 9.835112 3.516584
O -1.026342 10.909176 2.984697
N -1.543268 8.735140 3.451033
C -2.774822 8.700783 2.696707
C -4.028998 8.895409 3.569786
O -5.150285 8.752881 3.084432
C -2.886804 7.461725 1.799567
C -2.867177 6.079156 2.490236
C -1.472561 5.559668 2.806661
N -0.997706 4.583180 2.021138
O -0.804854 6.027032 3.746254
N -3.827719 9.286029 4.844012
C -4.942447 9.678310 5.683608
C -4.455096 -5.190579 4.396047
C -4.134713 -3.840320 3.791549
O -4.421796 -3.583011 2.628632
N -3.487766 -2.969533 4.610530
C -2.856776 -1.758352 4.123245
C -1.537031 -1.586082 4.865490
O -1.450749 -1.773227 6.079344
C -3.737548 -0.495475 4.335127
C -2.960045 0.804321 4.094601
C -4.962278 -0.554410 3.418859
N -0.506631 -1.122973 4.120874
C 0.676541 -0.574200 4.737867
C 1.758052 -1.609009 5.059151
O 1.955120 -2.580115 4.328872
N 2.493372 -1.336132 6.156402
C 3.720017 -2.037852 6.506438
C -3.362010 -4.112136 -1.711012
C -2.201693 -4.837381 -1.022900
O -1.687585 -5.833817 -1.543758
C -3.459647 -2.607615 -1.459887
N -1.819963 -4.382891 0.190540
C -0.759511 -5.014642 0.955872
C -0.902581 -4.681974 2.439730
C -0.144389 -5.633598 3.371670
C 1.351418 -5.699203 3.049755
C -0.366097 -5.219503 4.828847
C 2.523291 -7.676788 -1.853858
C 2.714747 -6.208018 -1.480235
C 1.919039 -5.258730 -2.376887
C 2.396652 -3.815381 -2.251486
N 1.500838 -2.852572 -2.559709
O 3.556281 -3.546350 -1.927812
C 9.693938 -1.796696 2.830309
C 8.200034 -1.800574 2.462803
C 7.348633 -0.992263 3.442919
C 5.847070 -0.874929 3.124569
O 5.363138 -1.600045 2.213926
O 5.199503 -0.042402 3.823788
C -2.898142 3.983757 -2.585277
C -1.743501 3.592513 -1.670803
O -1.899358 3.300137 -0.469479
C -4.094282 4.682785 -1.924217
C -4.884606 3.767018 -0.982894
C -3.674345 5.981808 -1.236031
N -0.539964 3.501944 -2.255672
C 0.640539 3.015445 -1.580555
C 1.886363 3.404243 -2.379872
O 1.803927 4.146263 -3.358922
N 3.016403 2.874205 -1.886248
C 4.346251 3.318346 -2.248155
C 5.184958 2.290407 -3.029137
O 6.145670 2.683963 -3.692960
C 5.072510 3.702667 -0.940305
C 6.537191 4.082771 -1.096885
O 4.319236 4.788526 -0.395042
N 4.861012 0.992936 -2.867235
C 5.749024 -0.085956 -3.269886
C 6.230665 -0.885989 -2.046655
C 6.988503 -0.039883 -1.051419
C 8.345349 0.234258 -1.225555
C 6.351562 0.517685 0.061308
C 9.049472 1.027435 -0.322764
C 7.036487 1.314698 0.971660
C 8.390206 1.567054 0.778745
O 9.035247 2.354353 1.702769
C -8.711097 -1.474757 -3.779893
C -8.197286 -0.111216 -3.292811
C -7.232052 -0.216099 -2.154523
C -5.899564 0.075089 -2.061647
N -7.623830 -0.693165 -0.920602
C -6.571069 -0.692761 -0.108495
N -5.511954 -0.224171 -0.772949
C -13.878983 -2.174865 -2.729047
C -13.585869 -2.274549 -1.227998
C -12.514098 -1.303536 -0.719733
C -11.046465 -1.706929 -0.975172
O -10.792166 -2.783588 -1.538566
O -10.190060 -0.853136 -0.550730
N 2.700436 -1.321043 1.810488
C 2.149482 -1.384605 0.428914
C 2.537826 -0.121050 -0.362412
O 2.872403 0.914716 0.281496
C 0.617276 -1.609308 0.433174
C -0.267526 -0.368917 0.270059
C -1.757692 -0.714028 0.353080
N -2.712412 0.349845 0.133862
O -2.116288 -1.582571 1.176196
O 2.448679 -0.206525 -1.607389
O 2.885443 1.212939 3.094781
O -3.121826 0.804873 -3.406141
H -12.971275 -2.385377 -3.303707
H -7.878388 -2.096838 -4.127118
H 1.466515 -7.964174 -1.801494
H 10.277858 -2.386005 2.114071
H -0.428257 7.073150 7.953758
H -3.222780 3.036071 -3.037554
H -9.404183 -1.333045 -4.616483
H -14.228811 -1.168967 -2.995917
H -5.462637 10.544382 5.260574
H -4.556429 9.931587 6.672626
H 1.366022 9.708462 3.620848
H 5.220933 -0.758294 -3.955101
H 0.609213 1.927287 -1.460169
H -4.289212 -4.594906 -1.372501
H -0.830608 -6.095864 0.794363
H -3.725293 -5.914187 4.016420
H 3.623229 -3.078082 6.191770
H 3.857155 -1.996336 7.589785
H 9.860969 -2.216471 3.830827
H 3.087206 -8.332449 -1.180440
H -14.650861 -2.892748 -3.031293
H -9.244379 -2.010948 -2.988286
H -3.253262 -4.318437 -2.778991
H 0.224746 -4.703940 0.574938
H 2.870268 -7.867252 -2.877289
H 10.090117 -0.773415 2.828479
H -5.663186 8.860066 5.772715
H 4.578089 -1.587506 5.994649
H 0.710968 3.453773 -0.579733
H -2.507979 4.611364 -3.397105
H 6.587618 0.369295 -3.801447
H 0.598130 10.570534 4.958036
H -4.415552 -5.199470 5.489945
H -5.445218 -5.505412 4.060590
H 4.252587 4.203501 -2.881972
H -2.764216 9.580607 2.042906
H -0.212829 6.208192 6.406937
H 1.195891 6.906299 7.227118
H -14.517841 -2.091453 -0.673928
H -13.266991 -3.295935 -0.994029
H -12.662803 -0.301420 -1.143958
H -12.610358 -1.176362 0.366107
H -7.698715 0.425636 -4.107697
H -9.048976 0.499800 -2.971495
H -8.671649 -0.917437 -0.702351
H -6.563115 -1.029154 0.916139
H -5.180435 0.442394 -2.783387
H -2.152853 -3.483407 0.529968
H -0.575485 -3.651063 2.632022
H -1.969894 -4.715625 2.685657
H -0.568718 -6.639961 3.228647
H 0.106812 -5.927412 5.520417
H 0.064708 -4.228997 5.012980
H -1.435785 -5.172473 5.069503
H 1.866661 -6.379812 3.738444
H 1.533699 -6.059541 2.031070
H 1.809632 -4.710548 3.158844
H -3.233747 -3.249472 5.548241
H -2.686496 -1.878649 3.050124
H -5.568108 -1.443564 3.610293
H -5.590616 0.333068 3.560069
H -4.636902 -0.599764 2.372648
H -4.069417 -0.506767 5.382184
H -2.475907 0.800577 3.110146
H -3.640197 1.662261 4.129604
H -2.179466 0.968653 4.844116
H -0.638647 -1.064473 3.118758
H 0.374009 -0.047732 5.649243
H 1.136300 0.159212 4.062930
H 2.313592 -0.459249 6.620983
H 3.773253 -5.937739 -1.539768
H 2.414414 -6.048963 -0.436248
H 2.060080 -5.542115 -3.430318
H 0.842733 -5.337372 -2.176111
H 0.510066 -3.045948 -2.645663
H 1.784486 -1.883108 -2.399733
H 6.866193 -1.704561 -2.406820
H 5.365564 -1.359498 -1.568801
H 8.868844 -0.181322 -2.083816
H 5.299067 0.318667 0.234748
H 6.531943 1.718972 1.844258
H 10.109149 1.223624 -0.478789
H 9.959498 2.445142 1.444235
H 7.826045 -2.829557 2.420139
H 8.070739 -1.390860 1.455050
H 7.426629 -1.418596 4.454232
H 7.734282 0.031690 3.524858
H 3.766724 -1.429071 1.873871
H 2.515862 -0.406959 2.259229
H 2.312120 -2.043023 2.431970
H 2.636652 -2.234863 -0.054632
H 0.365929 -2.290414 -0.382023
H 0.342933 -2.138502 1.353214
H -0.074930 0.367076 1.070392
H -0.048297 0.130148 -0.676597
H -2.942993 0.749775 1.043055
H -2.345864 1.105627 -0.443144
H 2.936337 2.255603 -1.070519
H -0.385891 3.836457 -3.199335
H -4.765900 4.948911 -2.752713
H -4.285599 3.489767 -0.111743
H -5.795340 4.270312 -0.637413
H -3.184409 6.667989 -1.937150
H -4.540070 6.497963 -0.805733
H -2.968164 5.772253 -0.426361
H -5.181437 2.843393 -1.492311
H 4.997903 2.838966 -0.265381
H 7.135073 3.233601 -1.435022
H 6.648819 4.898987 -1.816615
H 6.929790 4.403678 -0.123909
H -3.838855 7.552937 1.272370
H -2.093397 7.510238 1.045509
H -3.383413 5.363436 1.842558
H -3.426207 6.121926 3.431803
H -0.062305 4.245121 2.204198
H -1.478976 4.198498 1.207618
H 1.100258 7.681688 4.760686
H -2.881620 9.388137 5.190142
H -1.199151 7.848639 3.823322
S -1.950901 -1.670201 -1.877049
H -4.536848 -0.131214 -0.421642
H -4.303184 -2.223938 -2.041702
H -3.687489 -2.419377 -0.400409
H 3.751611 0.826265 3.391870
H 3.005518 1.417962 2.148179
H -2.744889 0.676024 -4.284657
H -2.755985 0.038986 -2.882236
H 3.988338 0.734156 -2.402374
H 4.611876 4.920618 0.513815
