237       
inactive_val51_ES_b3lyp_diethylether_nbo.log	Energy: -3585544.9004845
H 5.542379 1.453361 0.798018
H 4.310934 1.652537 -0.074717
H -4.409603 -1.843107 -4.574631
H -5.785214 -1.331856 -4.117463
N 4.167304 3.951432 2.457057
N 2.271266 4.829664 0.675114
N -0.664399 1.630841 2.440260
N 0.310615 6.061187 2.146621
C 3.192312 2.596285 4.239063
C 3.326457 3.918835 3.518197
C 4.427466 5.176597 1.734720
C 3.278189 5.702348 0.876115
C 1.053939 5.179311 -0.014416
C 0.114419 6.061709 0.812955
C 0.288232 3.906521 -0.435192
C -0.618852 3.260251 0.620352
C 0.097252 2.415081 1.654671
C -0.596900 6.774098 3.015085
O 2.715142 4.925028 3.895613
O 3.307365 6.842287 0.422327
O -0.834430 6.632412 0.275743
O 1.331347 2.421067 1.771794
H 3.447604 2.750760 5.291612
H 5.283668 5.003330 1.077880
H -0.302667 6.584838 4.049188
H -0.570333 7.851952 2.820589
H -1.624382 6.430042 2.858416
H 4.681831 5.976587 2.434695
H 2.154987 2.260300 4.182201
H 3.839387 1.816646 3.824683
H -0.204936 0.975766 3.074192
H -1.647333 1.507696 2.239522
H 4.493370 3.095401 2.012178
H 2.303673 3.908624 1.101276
H 1.153736 5.655581 2.542685
H -0.344913 4.174963 -1.280499
H 1.019959 3.176404 -0.796730
H 1.309711 5.752840 -0.909473
H -1.349301 2.620550 0.114624
H -1.214148 4.016459 1.146166
N -2.304544 -4.027125 0.258053
C -3.809825 -3.832824 -1.688826
C -2.835743 -4.634930 -0.829208
C -3.658156 -2.325817 -1.804030
C -1.434959 -4.729845 1.184264
C -2.092697 -5.027801 2.532503
C -1.368318 -6.136009 3.313946
C 0.134438 -5.885898 3.488642
C -2.040276 -6.358487 4.670845
O -2.633072 -5.823094 -1.091408
S -2.312674 -1.901234 -2.976026
H -4.800368 -4.029355 -1.256767
H -1.152887 -5.670545 0.705016
H -0.517194 -4.148081 1.308558
H -3.817392 -4.304868 -2.675520
H -2.385943 -3.023468 0.390465
H -2.154002 -4.109410 3.136019
H -3.126215 -5.349751 2.349779
H -1.478487 -7.057521 2.723407
H -1.575657 -7.189544 5.214510
H -1.952548 -5.460055 5.296696
H -3.107275 -6.582205 4.555843
H 0.609822 -6.747893 3.971503
H 0.648803 -5.708376 2.538169
H 0.314700 -5.015314 4.130687
H -2.392431 -0.564220 -2.842835
H -4.589458 -1.903718 -2.179600
H -3.479287 -1.850049 -0.840183
N 1.718543 -3.897455 -1.884132
C 0.684466 -8.610544 -0.998852
C 1.230883 -7.290158 -0.459698
C 0.876029 -6.116629 -1.369812
C 1.492291 -4.803625 -0.910528
O 1.760842 -4.583157 0.272975
H -0.405619 -8.565620 -1.104255
H 0.927836 -9.443664 -0.329796
H 1.105388 -8.838994 -1.985747
H 2.320179 -7.349636 -0.347077
H 0.832988 -7.097998 0.542486
H 1.196447 -6.330465 -2.398259
H -0.215740 -5.990595 -1.405050
H 1.411886 -4.072823 -2.827725
H 2.122105 -2.978968 -1.674367
C 8.881896 -3.296149 1.870049
C 7.396762 -2.948318 1.971810
C 7.164557 -1.560703 2.584313
C 5.699533 -1.135298 2.495034
O 4.836617 -1.829795 3.067463
O 5.430493 -0.083043 1.814313
H 9.026727 -4.300505 1.455869
H 9.367686 -3.262223 2.853843
H 9.398387 -2.584187 1.215302
H 6.956205 -2.979944 0.969178
H 6.863102 -3.693441 2.571676
H 7.450000 -1.583377 3.644453
H 7.794930 -0.817098 2.087316
N 0.064906 2.589996 -3.968994
N 3.359923 1.209216 -3.585734
N 4.649558 -1.241203 -4.097054
C -2.065188 3.681482 -4.362213
C -1.218769 2.680353 -3.580822
C -3.183521 4.412867 -3.595632
C -4.365427 3.506772 -3.247316
C -2.668709 5.137923 -2.350911
C 0.987598 1.608755 -3.446699
C 2.299924 1.711634 -4.234323
C 4.712712 1.208819 -4.104915
C 5.126666 -0.139223 -4.722780
C 5.678352 1.557768 -2.945972
C 7.145890 1.517745 -3.353462
C 5.169259 -2.571005 -4.357151
C 5.672075 -3.228227 -3.061229
C 6.773488 -2.429641 -2.408057
C 8.080606 -2.484420 -2.892648
C 6.507658 -1.564279 -1.343649
C 9.093455 -1.710209 -2.334627
C 7.503472 -0.773691 -0.783284
C 8.800254 -0.850253 -1.278785
O -1.671497 1.967552 -2.673340
O 2.306280 2.191924 -5.368345
O 5.905839 -0.179799 -5.673321
O 5.328549 2.840778 -2.462007
O 9.755574 -0.059664 -0.691798
H -2.511112 3.120240 -5.195445
H 0.586387 0.593534 -3.569841
H 4.391971 -3.200717 -4.810064
H 5.979095 -2.461555 -5.082647
H -1.392904 4.423603 -4.810008
H 1.157992 1.757789 -2.376770
H 6.024648 -4.238787 -3.304990
H 4.830668 -3.341830 -2.367382
H 4.001262 -1.130338 -3.316564
H -4.082135 2.758789 -2.503895
H -5.190990 4.094972 -2.831334
H -1.773490 5.737430 -2.550311
H -3.432425 5.812431 -1.950748
H -3.545690 5.175145 -4.300854
H 0.399555 3.084178 -4.788613
H 3.244326 1.021901 -2.584517
H 4.793445 1.962543 -4.891831
H 5.514922 0.812438 -2.154473
H 7.460334 0.511765 -3.645476
H 7.325679 2.198720 -4.191624
H 7.753911 1.837358 -2.500975
H 8.315627 -3.141338 -3.727269
H 10.106704 -1.771106 -2.727982
H 7.270131 -0.099987 0.033582
H 5.498534 -1.497194 -0.944864
H 10.577405 -0.132184 -1.190599
H 5.380349 2.814146 -1.490201
H -2.429540 4.421345 -1.559025
H -4.744268 2.979050 -4.130768
N -7.467508 0.394540 -1.151989
N -5.249747 0.380285 -1.042391
C -8.900921 -0.548049 -3.794953
C -7.959839 0.649575 -3.604337
C -7.023839 0.504063 -2.444905
C -5.650229 0.486343 -2.357691
C -6.378359 0.329176 -0.356264
H -8.329720 -1.459380 -4.008863
H -9.573820 -0.367892 -4.641369
H -9.511324 -0.729218 -2.903049
H -7.358377 0.809062 -4.508092
H -8.561287 1.555992 -3.458303
H -8.481578 0.429316 -0.856673
H -4.930317 0.600703 -3.159150
H -6.432020 0.253770 0.720045
C -13.977073 -0.139527 -2.012262
C -13.615362 -0.323535 -0.537243
C -12.385748 0.477806 -0.108246
C -11.025851 -0.047049 -0.625834
O -10.971575 -1.187064 -1.128915
O -10.054435 0.756351 -0.457554
H -13.142776 -0.462375 -2.642674
H -14.189165 0.914278 -2.236746
H -14.862298 -0.727498 -2.285507
H -14.474033 -0.028728 0.084512
H -13.422661 -1.384722 -0.346348
H -12.480429 1.529178 -0.408771
H -12.311949 0.487838 0.987869
O -5.342374 -1.805625 -4.837271
O 5.048612 2.157195 0.331592
N 2.724718 -0.039310 1.687854
C 2.338828 -1.030757 0.650657
C 2.796831 -0.504696 -0.715209
O 2.903075 -1.332974 -1.647785
C 0.825616 -1.314029 0.671611
C -0.051760 -0.381415 -0.165947
C -1.517227 -0.447208 0.247012
N -2.345272 0.413558 -0.345286
O -1.909060 -1.277575 1.095379
O 2.979160 0.741156 -0.807397
H 2.873828 -1.953941 0.888424
H 0.676191 -2.346195 0.345086
H 0.495361 -1.266065 1.711312
H 0.290776 0.657746 -0.117980
H 0.003882 -0.660059 -1.225816
H -2.011751 0.983255 -1.121769
H -3.372516 0.341732 -0.261445
H 3.785346 -0.004889 1.771079
H 2.360126 0.899947 1.471287
H 2.349348 -0.289083 2.611885
N -1.441248 -1.455663 3.917262
N 1.807090 -2.095364 5.291866
C -5.240756 -2.438027 2.501120
C -3.297039 -0.111391 4.723657
C -2.020366 -0.908744 5.011802
C -3.758166 0.762043 5.894643
C -2.724356 1.862747 6.154867
C -5.133071 1.363690 5.597546
C -0.289614 -2.290143 4.091813
C 0.933771 -1.476118 4.496823
C 3.069078 -1.498687 5.694443
O -1.601517 -1.125535 6.146473
O 1.104914 -0.326659 4.064906
H 3.426475 -2.016982 6.586987
H 3.810163 -1.577309 4.891177
H 2.899538 -0.446437 5.935727
H -5.887778 0.586992 5.444323
H -5.457289 2.000509 6.428138
H -5.102108 1.978097 4.689945
H -2.604736 2.498515 5.267917
H -3.049605 2.504715 6.980700
H -1.747486 1.446071 6.414457
H -3.823776 0.128166 6.788062
H -3.130660 0.538063 3.857214
H -1.765244 -1.272313 2.965808
H -0.071479 -2.787105 3.141968
H -0.498626 -3.061043 4.841142
H 1.605659 -3.042474 5.571918
N -4.272090 -1.094316 4.274819
C -4.699646 -1.111407 2.974107
O -4.597728 -0.134007 2.247566
H -4.424289 -2.971144 1.998475
H -5.619241 -3.063592 3.315164
H -6.032783 -2.270788 1.768142
H -4.302230 -1.966403 4.783513
