237       
inactive_TS3 Energy: -3585501.3418520
C 0.131361 7.050407 7.017995
C -0.107159 8.350623 6.282767
O -0.908986 9.202651 6.660456
N 0.642118 8.521554 5.158020
C 0.526074 9.714328 4.350981
C -0.757493 9.858542 3.530596
O -1.018713 10.931694 2.996111
N -1.531477 8.755359 3.457019
C -2.760631 8.717076 2.698865
C -4.018570 8.907153 3.568357
O -5.137180 8.766100 3.076880
C -2.865232 7.477920 1.800068
C -2.843890 6.094902 2.489466
C -1.450619 5.582916 2.823580
N -0.959933 4.611869 2.040679
O -0.797265 6.049557 3.773313
N -3.823486 9.291900 4.845524
C -4.942209 9.678501 5.683124
C -4.455450 -5.190459 4.396215
C -4.061365 -3.902342 3.701931
O -4.274425 -3.738966 2.506593
N -3.431403 -2.986868 4.482726
C -2.779830 -1.802494 3.957490
C -1.493417 -1.598716 4.749378
O -1.433550 -1.819783 5.958880
C -3.676864 -0.536663 4.069780
C -2.914807 0.751694 3.737288
C -4.883168 -0.680715 3.139724
N -0.452549 -1.085316 4.051627
C 0.701724 -0.537698 4.722366
C 1.785945 -1.573093 5.035234
O 2.005738 -2.522016 4.282924
N 2.498031 -1.328590 6.154255
C 3.719812 -2.037870 6.506320
C -3.361655 -4.112189 -1.710989
C -2.180323 -4.803381 -1.021481
O -1.608440 -5.750357 -1.574441
C -3.514335 -2.624156 -1.454396
N -1.836220 -4.378817 0.211907
C -0.760009 -5.014857 0.955634
C -0.840557 -4.656545 2.435890
C -0.053010 -5.601681 3.350013
C 1.435532 -5.656040 2.994707
C -0.248343 -5.190696 4.811673
C 2.522899 -7.677299 -1.853658
C 2.759793 -6.207938 -1.510036
C 1.955343 -5.260027 -2.399127
C 2.424381 -3.814789 -2.273540
N 1.509013 -2.859899 -2.558299
O 3.584755 -3.533105 -1.970576
C 9.693728 -1.797230 2.830311
C 8.207650 -1.773390 2.419052
C 7.333904 -0.976963 3.391238
C 5.834568 -0.840775 3.054579
O 5.337853 -1.566634 2.151980
O 5.201051 0.012892 3.742198
C -2.897646 3.983165 -2.585310
C -1.736319 3.645075 -1.658729
O -1.886532 3.368126 -0.455402
C -4.106597 4.676571 -1.938773
C -4.884382 3.769003 -0.979315
C -3.707738 5.996081 -1.275952
N -0.524045 3.582087 -2.236731
C 0.669301 3.183522 -1.525878
C 1.895486 3.472677 -2.394466
O 1.801482 4.190453 -3.390941
N 3.022764 2.911662 -1.931181
C 4.353196 3.339524 -2.313738
C 5.185564 2.293464 -3.075676
O 6.147528 2.672372 -3.745800
C 5.087664 3.751140 -1.018327
C 6.551162 4.128524 -1.189886
O 4.334674 4.846782 -0.492679
N 4.858916 0.999759 -2.890445
C 5.749012 -0.086526 -3.269895
C 6.232421 -0.858659 -2.030120
C 6.988510 0.009727 -1.053152
C 8.342511 0.290182 -1.238596
C 6.353305 0.578976 0.054630
C 9.046119 1.100115 -0.350496
C 7.038350 1.390749 0.951935
C 8.389506 1.649027 0.748059
O 9.034339 2.452406 1.657998
C -8.711215 -1.474799 -3.779845
C -8.012785 -0.137824 -3.469797
C -7.029534 -0.185113 -2.337295
C -5.691912 0.109860 -2.249275
N -7.420485 -0.530097 -1.064214
C -6.352934 -0.441202 -0.258823
N -5.279703 -0.051549 -0.940351
C -13.879219 -2.174771 -2.729117
C -13.569027 -1.966641 -1.241459
C -12.440707 -0.968770 -0.946078
C -10.993029 -1.503759 -1.063308
O -10.808516 -2.674478 -1.443600
O -10.091525 -0.656254 -0.748424
N 2.641153 -1.265270 1.756704
C 2.074291 -1.324504 0.380436
C 2.483812 -0.074119 -0.419691
O 2.830615 0.960746 0.216860
C 0.533386 -1.537118 0.383813
C -0.366396 -0.334933 0.046526
C -1.853172 -0.766565 -0.022106
N -2.785433 0.411992 -0.275848
O -2.269211 -1.476760 0.957331
O 2.399705 -0.172668 -1.665146
O 2.883054 1.251158 3.040070
O -2.348679 0.987967 -3.360303
H -12.990398 -2.548351 -3.247485
H -7.980366 -2.224067 -4.105794
H 1.461914 -7.938062 -1.762930
H 10.289762 -2.376469 2.116020
H -0.419928 7.066543 7.958367
H -3.202466 3.024020 -3.021965
H -9.436584 -1.331447 -4.588195
H -14.183102 -1.232182 -3.203471
H -4.560549 9.923001 6.676000
H -5.664073 8.860235 5.761703
H 1.372146 9.755373 3.659676
H 5.221766 -0.774198 -3.940289
H 0.633184 2.124658 -1.250706
H -4.275570 -4.623237 -1.379946
H -0.851727 -6.098120 0.817850
H -3.722158 -5.959316 4.128336
H 4.582163 -1.596645 5.993932
H 3.617192 -3.079115 6.196620
H 9.825549 -2.244069 3.824172
H 3.092603 -8.335638 -1.187938
H -14.690025 -2.900321 -2.867760
H -9.245919 -1.869721 -2.911610
H -3.244211 -4.318327 -2.778472
H 0.214032 -4.728938 0.531307
H 2.831963 -7.892193 -2.884334
H 10.102078 -0.779440 2.865681
H -5.459340 10.548662 5.264780
H 3.857069 -1.991886 7.589264
H 0.771619 3.756182 -0.596349
H -2.519906 4.599694 -3.411516
H 6.586319 0.358853 -3.811562
H 0.578176 10.595078 4.995489
H -4.487919 -5.106046 5.487088
H -5.430043 -5.510198 4.022497
H 4.258646 4.210759 -2.966322
H -2.751158 9.597181 2.045577
H -0.221441 6.215302 6.401752
H 1.197363 6.900800 7.215678
H -14.484505 -1.622003 -0.738313
H -13.301348 -2.931425 -0.797163
H -12.521003 -0.088764 -1.599344
H -12.543901 -0.581535 0.075334
H -7.484526 0.230936 -4.357070
H -8.779654 0.605694 -3.219787
H -8.435950 -0.735386 -0.824422
H -6.371067 -0.671598 0.794802
H -4.997542 0.422991 -3.017097
H -2.214828 -3.507526 0.585062
H -0.497615 -3.625558 2.599816
H -1.895122 -4.682630 2.726285
H -0.473417 -6.610851 3.215625
H 0.243848 -5.896207 5.492163
H 0.177683 -4.197188 4.989023
H -1.313337 -5.150868 5.073222
H 1.970868 -6.334836 3.669575
H 1.597930 -6.012521 1.971182
H 1.889685 -4.664635 3.096369
H -3.232840 -3.197959 5.451459
H -2.563281 -1.965875 2.897110
H -5.501430 -1.542225 3.404408
H -5.508934 0.219199 3.183188
H -4.526715 -0.830378 2.114489
H -4.022425 -0.476701 5.111359
H -2.445682 0.671538 2.749392
H -3.606179 1.601151 3.715302
H -2.131276 0.979801 4.466928
H -0.584751 -0.932788 3.060359
H 0.368768 -0.047744 5.643664
H 1.170016 0.221642 4.083000
H 2.298834 -0.471871 6.647377
H 3.821623 -5.961408 -1.605102
H 2.494300 -6.025005 -0.460648
H 2.090509 -5.541068 -3.453936
H 0.881126 -5.345949 -2.189802
H 0.524961 -3.079728 -2.634317
H 1.778701 -1.884655 -2.406070
H 6.869276 -1.683653 -2.372717
H 5.369264 -1.324030 -1.541081
H 8.864202 -0.134024 -2.093709
H 5.302929 0.374466 0.235253
H 6.536576 1.800771 1.823366
H 10.103473 1.301511 -0.515214
H 9.957572 2.542672 1.395610
H 7.824033 -2.796791 2.341346
H 8.114570 -1.339201 1.417241
H 7.389598 -1.420706 4.396709
H 7.722917 0.043273 3.498276
H 3.704313 -1.385138 1.805800
H 2.477340 -0.346542 2.207088
H 2.255846 -1.980987 2.388673
H 2.549888 -2.182762 -0.099331
H 0.308454 -2.323346 -0.340183
H 0.233694 -1.949503 1.353459
H -0.282659 0.451204 0.813092
H -0.053236 0.108945 -0.905523
H -2.780536 1.002053 0.558796
H -2.452497 1.005602 -1.040449
H 2.945622 2.303811 -1.106737
H -0.360991 3.954302 -3.165624
H -4.780515 4.915100 -2.773520
H -4.287110 3.527441 -0.096258
H -5.805999 4.263731 -0.651623
H -3.223289 6.674342 -1.988631
H -4.583123 6.508869 -0.861671
H -3.004677 5.814079 -0.456648
H -5.164030 2.826407 -1.462962
H 5.018229 2.901582 -0.324908
H 7.147012 3.272314 -1.513421
H 6.659639 4.929720 -1.926718
H 6.948935 4.468578 -0.225432
H -3.815656 7.565733 1.268911
H -2.068884 7.529270 1.049073
H -3.346903 5.376624 1.834096
H -3.415525 6.132447 3.423615
H -0.028428 4.272060 2.239326
H -1.432278 4.227328 1.222291
H 1.113507 7.713362 4.776433
H -2.879529 9.392127 5.197849
H -1.190083 7.871699 3.837858
S -1.987139 -1.706613 -1.808456
H -4.045315 0.116484 -0.554797
H -4.334469 -2.229676 -2.057297
H -3.745934 -2.426633 -0.400081
H 3.753173 0.861502 3.327465
H 2.999682 1.474458 2.098064
H -1.463456 1.159749 -3.704233
H -2.325551 0.049815 -3.060817
H 3.981652 0.751184 -2.429504
H 4.662238 5.027928 0.395666
