237       
inactive_val51_TS3_optimized.log	Energy: -3583041.0015839
H 5.240661 1.163526 0.805141
H 4.040432 1.659184 0.015107
H -2.680405 -0.476793 -4.081010
H -2.621303 0.970766 -3.684164
N -2.436969 -4.086149 0.352894
N 2.428091 -0.378862 1.369119
N -2.778146 0.562759 -0.351913
C 2.006233 -1.243222 0.238616
C -3.809524 -3.832913 -1.688843
C -2.911334 -4.669614 -0.772457
C -3.784680 -2.323112 -1.521463
C -1.434586 -4.729764 1.183223
C -1.894133 -4.947177 2.623506
C -0.997055 -5.928172 3.396459
C 0.493891 -5.570689 3.358121
C -1.481236 -6.069677 4.841694
C 2.566910 -0.621829 -1.043927
C 0.491282 -1.476656 0.148537
C -0.407273 -0.268674 -0.125909
C -1.905170 -0.672176 -0.150320
O -2.681986 -5.847283 -1.069950
O -2.303974 -1.332500 0.908705
O 2.603990 -1.350204 -2.063898
O 2.923952 0.585005 -0.990013
S -2.129449 -1.623881 -1.817912
H -4.835491 -4.194284 -1.536902
H -1.207738 -5.697865 0.727578
H -0.515253 -4.135926 1.144317
H -3.534437 -4.116945 -2.709468
H -2.501011 -3.068497 0.478722
H -1.954289 -3.982934 3.149173
H -2.915431 -5.349473 2.601896
H -1.107571 -6.906173 2.904776
H -0.893297 -6.816378 5.388572
H -1.386560 -5.114692 5.376662
H -2.534963 -6.369573 4.882764
H 1.085091 -6.350018 3.853374
H 0.879869 -5.455472 2.339874
H 0.689999 -4.631669 3.889700
H 0.339332 -2.226846 -0.631899
H 0.160724 -1.952598 1.074841
H -0.308486 0.449566 0.694145
H -0.124454 0.241915 -1.055358
H -2.361819 1.194838 -1.046646
H -2.836650 1.037037 0.551346
H -3.971301 0.418020 -0.707734
H -4.499868 -1.869076 -2.209978
H -4.083622 -2.023044 -0.511124
H 2.471157 -2.222191 0.389868
H 3.485903 -0.449327 1.501671
H 2.210959 0.613757 1.191329
H 1.995053 -0.613408 2.266575
N -7.448179 0.651384 -1.268166
N -5.259156 0.474939 -1.168319
C -8.900610 -0.548113 -3.795006
C -7.945592 0.651446 -3.728271
C -7.003697 0.592116 -2.568316
C -5.641079 0.478974 -2.495868
C -6.381193 0.579990 -0.462620
H -8.335479 -1.479367 -3.918072
H -9.579058 -0.445626 -4.650220
H -9.504889 -0.634547 -2.885231
H -7.349312 0.719149 -4.645825
H -8.534765 1.574544 -3.658980
H -8.467967 0.763013 -0.988187
H -4.914570 0.416069 -3.296069
H -6.424790 0.586339 0.613883
C -13.977684 -0.139374 -2.012191
C -13.566526 0.022052 -0.547063
C -12.353010 0.931270 -0.344185
C -10.984036 0.334558 -0.743250
O -10.913083 -0.871403 -1.049612
O -10.018088 1.163753 -0.698864
H -13.151638 -0.572567 -2.584563
H -14.233268 0.831089 -2.458058
H -14.849741 -0.797364 -2.113678
H -14.416771 0.426310 0.022229
H -13.335782 -0.964358 -0.130459
H -12.479432 1.877039 -0.887336
H -12.267958 1.209174 0.714870
N 4.258991 3.959635 2.512999
N 2.456909 5.012136 0.726511
N -0.209773 2.083549 2.537954
N 0.389790 6.134713 2.168518
C 3.192963 2.595451 4.236385
C 3.375847 3.925438 3.540891
C 4.587314 5.209133 1.861667
C 3.459770 5.852330 1.052358
C 1.278331 5.413965 -0.002809
C 0.274984 6.219058 0.827755
C 0.552691 4.167639 -0.543283
C -0.297828 3.389320 0.467130
C 0.479955 2.600388 1.504544
C -0.594190 6.772268 3.014251
O 2.786498 4.942291 3.926374
O 3.499648 7.037367 0.738310
O -0.658041 6.798807 0.272618
O 1.688641 2.366650 1.372584
H 3.729642 2.632573 5.190710
H 5.426256 5.025115 1.184736
H -0.364702 6.528782 4.053484
H -0.587420 7.860065 2.884788
H -1.597938 6.411604 2.767307
H 4.896442 5.950188 2.603077
H 2.134583 2.438195 4.448226
H 3.566687 1.750400 3.652547
H 0.235145 1.389186 3.142030
H -1.199670 2.243431 2.638408
H 4.521276 3.101733 2.024202
H 2.530397 4.033263 0.985321
H 1.231223 5.748756 2.588413
H -0.112570 4.491826 -1.344501
H 1.298649 3.500112 -0.985062
H 1.572568 6.051743 -0.841307
H -0.871780 2.649213 -0.105273
H -1.030721 4.041038 0.957061
N -1.290591 -1.140748 3.529361
N 1.771779 -1.971655 5.237747
C -5.240558 -2.439959 2.500157
C -3.199304 0.208943 4.191074
C -1.892867 -0.500848 4.553421
C -3.627450 1.257969 5.222204
C -2.640101 2.428615 5.209562
C -5.051781 1.742867 4.949424
C -0.211184 -2.024936 3.856459
C 1.001979 -1.277949 4.394966
C 3.067945 -1.502553 5.694315
O -1.491450 -0.588150 5.713938
O 1.273608 -0.132612 4.010551
H 3.835114 -1.706151 4.939035
H 3.005551 -0.426677 5.870845
H 3.309784 -2.006135 6.633413
H -5.768809 0.918243 4.994683
H -5.345410 2.496102 5.689322
H -5.129901 2.192165 3.952853
H -2.691726 2.967689 4.252907
H -2.887276 3.150800 5.994611
H -1.609509 2.098195 5.374256
H -3.587327 0.785074 6.210739
H -3.104061 0.689657 3.209604
H -1.671057 -1.134457 2.562970
H 0.091746 -2.559668 2.951620
H -0.535682 -2.773145 4.590651
H 1.511113 -2.925414 5.436196
N 1.628922 -3.988433 -2.242095
C 0.684684 -8.611670 -1.001701
C 1.232942 -7.256548 -0.566412
C 0.784907 -6.143144 -1.509368
C 1.435979 -4.809328 -1.187913
O 1.771227 -4.507828 -0.039939
H -0.410719 -8.593493 -1.039558
H 0.987869 -9.405981 -0.309879
H 1.047561 -8.881771 -2.001204
H 2.328583 -7.286875 -0.527880
H 0.899795 -7.020377 0.449767
H 1.009762 -6.420216 -2.548129
H -0.306092 -6.018530 -1.448740
H 1.222047 -4.216784 -3.135241
H 1.977266 -3.031474 -2.108738
C 8.883325 -3.298282 1.867578
C 7.368028 -3.069718 1.868104
C 6.971414 -1.729924 2.507254
C 5.473176 -1.441376 2.363576
O 4.664919 -2.141874 3.001694
O 5.129958 -0.493150 1.570825
H 9.135915 -4.268764 1.425374
H 9.290030 -3.273067 2.886791
H 9.388070 -2.519297 1.283863
H 7.006106 -3.097294 0.834286
H 6.857882 -3.878863 2.402868
H 7.212571 -1.760061 3.577755
H 7.548808 -0.917537 2.055654
N 0.125211 2.688468 -3.998095
N 3.413084 1.244993 -3.665071
N 4.664539 -1.225714 -4.147929
C -2.064787 3.680173 -4.362785
C -1.130214 2.797554 -3.548406
C -3.164782 4.426798 -3.584329
C -4.302058 3.510496 -3.127676
C -2.606174 5.240522 -2.414932
C 1.073284 1.734308 -3.468303
C 2.375849 1.831519 -4.276208
C 4.780037 1.225185 -4.139000
C 5.203977 -0.133252 -4.736812
C 5.705715 1.541594 -2.933118
C 7.183183 1.570450 -3.302090
C 5.168496 -2.571454 -4.359554
C 5.624726 -3.205010 -3.035233
C 6.738823 -2.422071 -2.385486
C 8.047164 -2.515052 -2.862124
C 6.487897 -1.534847 -1.336226
C 9.075116 -1.755572 -2.312575
C 7.500163 -0.758005 -0.785426
C 8.796466 -0.870822 -1.273283
O -1.517174 2.153839 -2.553356
O 2.388214 2.380401 -5.379424
O 6.049646 -0.185133 -5.629415
O 5.310492 2.782040 -2.374068
O 9.768003 -0.091329 -0.696091
H -2.528420 3.016847 -5.106101
H 0.679789 0.712517 -3.552143
H 4.388570 -3.196294 -4.813802
H 5.998513 -2.496769 -5.066502
H -1.458753 4.404910 -4.920622
H 1.260307 1.915505 -2.406586
H 5.949331 -4.233239 -3.241971
H 4.765637 -3.271992 -2.357408
H 3.925844 -1.109327 -3.451519
H -3.964061 2.812672 -2.357735
H -5.125058 4.098063 -2.705432
H -1.755144 5.865136 -2.709544
H -3.372788 5.902467 -1.999063
H -3.588277 5.134411 -4.311553
H 0.421017 3.137654 -4.858645
H 3.268740 0.990930 -2.681637
H 4.902225 1.980502 -4.918952
H 5.541141 0.747899 -2.192426
H 7.531754 0.598555 -3.661817
H 7.363196 2.318188 -4.081691
H 7.761899 1.841580 -2.413254
H 8.270514 -3.190782 -3.684881
H 10.088616 -1.846493 -2.699620
H 7.277888 -0.063503 0.016466
H 5.484066 -1.436326 -0.930509
H 10.588330 -0.190193 -1.192762
H 5.294202 2.673032 -1.406925
H -2.276379 4.579917 -1.606708
H -4.701756 2.918743 -3.958041
O -2.943014 0.398725 -4.401287
O 4.867554 1.987037 0.424057
N -4.147670 -0.880459 3.996525
C -4.795591 -1.031494 2.803889
O -4.953823 -0.088912 2.040813
H -4.434061 -2.924236 1.935644
H -5.439702 -3.026469 3.402499
H -6.133101 -2.418568 1.871842
H -3.984064 -1.717481 4.537707
