%nprocshared=48
%mem=90GB
# wb97xd/def2qzvpp scrf=(solvent=diethylether)

active_int1_conf_1_spc_wb97xd

-2 1
 C   3.23940000   2.61240000   4.15700000
 C   3.52530000   3.99790000   3.62960000
 O   2.91750000   4.98610000   4.05560000
 N   4.50490000   4.10750000   2.69810000
 C   4.87930000   5.40620000   2.18360000
 C   3.81740000   6.10510000   1.33260000
 O   3.88080000   7.30600000   1.09270000
 N   2.84290000   5.28840000   0.88110000
 C   1.75390000   5.72060000   0.03890000
 C   0.61070000   6.41270000   0.79240000
 O  -0.28370000   6.97600000   0.16080000
 C   1.17760000   4.50130000  -0.70340000
 C   0.24710000   3.60780000   0.12360000
 C   0.90640000   2.78710000   1.21790000
 N   0.11050000   2.31710000   2.19320000
 O   2.11700000   2.51660000   1.19070000
 N   0.58030000   6.26390000   2.13130000
 C  -0.52520000   6.80080000   2.89940000
 C  -5.23170000  -2.38570000   2.49650000
 C  -4.96230000  -1.13720000   3.32250000
 O  -5.66100000  -0.83340000   4.28660000
 N  -3.92780000  -0.38570000   2.87460000
 C  -3.45950000   0.87180000   3.43750000
 C  -2.60970000   0.63770000   4.70830000
 O  -2.92380000   1.03170000   5.82510000
 C  -4.51700000   1.96900000   3.63980000
 C  -3.81380000   3.31990000   3.82110000
 C  -5.47760000   2.03040000   2.45350000
 N  -1.43790000  -0.01010000   4.47660000
 C  -0.51760000  -0.23840000   5.55410000
 C   0.89120000  -0.49140000   5.03720000
 O   1.26860000  -0.03970000   3.94930000
 N   1.68000000  -1.18290000   5.87500000
 C   3.09250000  -1.46770000   5.65850000
 C  -3.82050000  -3.83380000  -1.68250000
 C  -2.86130000  -4.66080000  -0.82610000
 O  -2.57100000  -5.82010000  -1.14540000
 C  -4.66970000  -2.76450000  -1.00160000
 N  -2.35750000  -4.06380000   0.27250000
 C  -1.44280000  -4.71550000   1.19310000
 C  -1.52300000  -4.01000000   2.54810000
 C  -0.48940000  -4.47310000   3.58510000
 C   0.91950000  -3.95510000   3.27670000
 C  -0.93010000  -4.01250000   4.97800000
 C   0.64440000  -8.63330000  -0.95420000
 C   1.29690000  -7.33200000  -0.49360000
 C   0.93070000  -6.16530000  -1.40670000
 C   1.65800000  -4.88140000  -1.04170000
 N   1.77600000  -3.97150000  -2.03060000
 O   2.10110000  -4.67620000   0.09150000
 C   8.88430000  -3.34260000   1.83560000
 C   7.48090000  -2.78850000   2.08660000
 C   7.49900000  -1.37350000   2.68740000
 C   6.09570000  -0.76890000   2.69910000
 O   5.39300000  -0.86090000   3.72320000
 O   5.69860000  -0.24010000   1.59870000
 C  -2.03490000   3.63940000  -4.44090000
 C  -1.12440000   2.73880000  -3.61550000
 O  -1.57770000   2.02830000  -2.70060000
 C  -2.84690000   4.65570000  -3.60740000
 C  -3.98230000   4.01250000  -2.80560000
 C  -1.94210000   5.49090000  -2.69970000
 N   0.18250000   2.73440000  -3.91500000
 C   1.12790000   1.81900000  -3.31270000
 C   2.41980000   1.82830000  -4.14730000
 O   2.43630000   2.37540000  -5.25110000
 N   3.43840000   1.18180000  -3.56580000
 C   4.79070000   1.13610000  -4.09140000
 C   5.16040000  -0.21780000  -4.73260000
 O   5.90180000  -0.25820000  -5.71420000
 C   5.77470000   1.44190000  -2.93250000
 C   7.23180000   1.41550000  -3.37580000
 O   5.43740000   2.71080000  -2.39840000
 N   4.68970000  -1.31600000  -4.09960000
 C   5.15890000  -2.65970000  -4.38860000
 C   5.73260000  -3.33030000  -3.13030000
 C   6.88230000  -2.55210000  -2.53830000
 C   8.14790000  -2.58310000  -3.12490000
 C   6.70210000  -1.73440000  -1.42010000
 C   9.20200000  -1.83230000  -2.61260000
 C   7.73930000  -0.96940000  -0.90110000
 C   8.99340000  -1.02210000  -1.49860000
 O   9.99500000  -0.25710000  -0.95350000
 C  -8.89560000  -0.53870000  -3.81010000
 C  -9.10780000   0.55410000  -2.75690000
 C  -8.19360000   0.34920000  -1.59140000
 C  -6.82690000   0.35750000  -1.53940000
 N  -8.64070000  -0.00910000  -0.34020000
 C  -7.59050000  -0.22430000   0.44030000
 N  -6.47670000   0.00250000  -0.25950000
 C -13.97170000  -0.14790000  -2.00340000
 C -13.96120000  -1.54700000  -1.38900000
 C -13.08120000  -1.62070000  -0.13980000
 C -11.61980000  -1.27130000  -0.44850000
 O -11.07490000  -1.79890000  -1.43410000
 O -11.06530000  -0.43480000   0.34790000
 N   3.00190000  -0.21210000   1.65710000
 C   2.60830000  -1.19890000   0.61660000
 C   3.08290000  -0.67930000  -0.74570000
 O   3.35220000   0.54590000  -0.82650000
 C   1.09200000  -1.42940000   0.60140000
 C   0.29100000  -0.34440000  -0.12720000
 C  -0.99650000   0.01350000   0.58020000
 N  -1.74880000   0.97160000  -0.00760000
 O  -1.30880000  -0.48300000   1.66590000
 O   3.09190000  -1.49660000  -1.69690000
 O  -4.02450000   0.53060000  -3.16690000
 O   5.15840000   2.23700000   0.49430000
 H  -7.85740000  -0.55360000  -4.15880000
 H  -0.44620000  -8.53000000  -0.98590000
 H   8.84090000  -4.36320000   1.43930000
 H   3.54390000   2.57730000   5.20820000
 H   5.77580000   5.28250000   1.56980000
 H  -2.72140000   2.97820000  -4.98430000
 H   0.71410000   0.80360000  -3.29670000
 H   4.33540000  -3.26930000  -4.78360000
 H -12.96380000   0.13550000  -2.32420000
 H -14.31550000   0.59920000  -1.27730000
 H  -9.54720000  -0.37130000  -4.67530000
 H  -4.46680000  -4.57390000  -2.16860000
 H  -1.72790000  -5.76900000   1.27770000
 H   0.88960000  -9.46170000  -0.27970000
 H   9.47690000  -3.36120000   2.75920000
 H   3.61910000  -1.41390000   6.61390000
 H   3.23080000  -2.46080000   5.21980000
 H  -5.95460000  -2.15480000   1.70840000
 H  -0.38170000   6.52700000   3.94610000
 H  -0.57670000   7.89090000   2.80960000
 H -14.63020000  -0.09840000  -2.87910000
 H  -9.14390000  -1.51200000  -3.37850000
 H   0.98210000  -8.90980000  -1.96090000
 H   5.91920000  -2.57330000  -5.16910000
 H  -1.47320000   6.38650000   2.54180000
 H   3.53050000  -0.74090000   4.97350000
 H   9.41460000  -2.72010000   1.10530000
 H  -0.41540000  -4.68720000   0.80720000
 H  -3.22620000  -3.36690000  -2.47880000
 H  -1.43740000   4.17760000  -5.18600000
 H   1.34520000   2.09450000  -2.27500000
 H   5.11410000   6.08440000   3.00760000
 H   2.16560000   2.42830000   4.11420000
 H   3.76960000   1.82290000   3.61790000
 H -14.98650000  -1.84790000  -1.13250000
 H -13.58320000  -2.26410000  -2.12550000
 H -13.45310000  -0.94700000   0.63960000
 H -13.10030000  -2.64090000   0.26540000
 H  -8.92990000   1.54420000  -3.19420000
 H -10.14220000   0.52250000  -2.40400000
 H  -9.70260000  -0.19240000  -0.05370000
 H  -6.06940000   0.56720000  -2.28550000
 H  -7.63440000  -0.53000000   1.47410000
 H  -4.33460000  -2.77590000   2.01160000
 H  -5.67150000  -3.14240000   3.14980000
 H  -2.51840000  -3.05840000   0.36380000
 H  -1.40480000  -2.92650000   2.39680000
 H  -2.53450000  -4.15910000   2.94990000
 H  -0.46070000  -5.57310000   3.57860000
 H  -0.16830000  -4.23700000   5.73530000
 H  -1.10210000  -2.92870000   4.97230000
 H  -1.86880000  -4.48810000   5.28370000
 H   1.64560000  -4.35840000   3.99370000
 H   1.25960000  -4.22450000   2.27170000
 H   0.94460000  -2.86030000   3.36300000
 H   2.38720000  -7.44580000  -0.46160000
 H   0.98550000  -7.09150000   0.52830000
 H   1.14860000  -6.42030000  -2.45290000
 H  -0.15270000  -5.98030000  -1.35160000
 H   6.93400000  -2.76720000   1.13810000
 H   6.92530000  -3.45360000   2.75940000
 H   7.88590000  -1.40970000   3.71140000
 H   8.16130000  -0.73690000   2.08940000
 H   6.05530000  -4.34380000  -3.40250000
 H   4.93420000  -3.43710000  -2.38700000
 H   4.08160000  -1.20720000  -3.28510000
 H   1.35870000  -4.13570000  -2.93240000
 H   2.24340000  -3.07600000  -1.85330000
 H   5.59140000   1.42500000   0.83500000
 H   4.31660000   1.88270000   0.14610000
 H  -3.86450000  -0.14010000  -2.46570000
 H  -3.26280000   1.12820000  -3.07730000
 H  -3.58870000   3.37530000  -2.00860000
 H  -4.60240000   4.79010000  -2.34500000
 H  -1.09420000   5.92190000  -3.24480000
 H  -2.49250000   6.31430000  -2.23480000
 H  -3.30370000   5.32820000  -4.34690000
 H   0.53810000   3.21000000  -4.73820000
 H   3.34010000   0.94070000  -2.57220000
 H   0.45590000   1.59470000   2.82430000
 H  -0.89020000   2.41740000   2.11310000
 H   4.89050000   1.89540000  -4.87050000
 H   5.62260000   0.67340000  -2.16290000
 H   7.53160000   0.42270000  -3.72330000
 H   7.39510000   2.13500000  -4.18500000
 H   7.86430000   1.69020000  -2.52550000
 H   8.31690000  -3.20130000  -4.00390000
 H  10.18140000  -1.87270000  -3.08640000
 H   7.55900000  -0.33490000  -0.04010000
 H   5.72860000  -1.67890000  -0.94050000
 H  10.77240000  -0.30360000  -1.52170000
 H   5.49850000   2.65700000  -1.42780000
 H   4.79570000   3.29020000   2.15810000
 H   2.92520000   4.29240000   1.05800000
 H   1.38450000   5.87610000   2.61590000
 H   4.06610000  -0.17920000   1.72580000
 H   2.68160000   0.74060000   1.41560000
 H   2.61020000  -0.43620000   2.58060000
 H   3.10990000  -2.14120000   0.84980000
 H   0.90840000  -2.40510000   0.14650000
 H   0.73810000  -1.50060000   1.63330000
 H   0.87210000   0.58010000  -0.23900000
 H   0.04100000  -0.65780000  -1.14740000
 H  -1.59740000   1.19220000  -0.99110000
 H  -2.72090000   1.00210000   0.27590000
 H  -1.54400000   4.87870000  -1.88310000
 H  -4.62360000   3.38780000  -3.43640000
 H  -6.09030000   1.12980000   2.39160000
 H  -6.15380000   2.88620000   2.55490000
 H  -4.93980000   2.14440000   1.50210000
 H  -3.25990000   3.59660000   2.91150000
 H  -4.54890000   4.11080000   4.00540000
 H  -3.11810000   3.30750000   4.66460000
 H  -5.08090000   1.73480000   4.54630000
 H  -2.75840000   1.24140000   2.67940000
 H  -1.21110000  -0.32160000   3.53410000
 H  -0.84540000  -1.06650000   6.19790000
 H  -0.49090000   0.65410000   6.19290000
 H   1.23660000  -1.59130000   6.68380000
 H  -3.41620000  -0.72720000   2.06460000
 H   0.60500000   4.86650000  -1.55800000
 H   2.01470000   3.91460000  -1.09730000
 H   2.12950000   6.44660000  -0.68820000
 H  -0.21620000   2.87950000  -0.55270000
 H  -0.58530000   4.18710000   0.53850000
 S  -3.68820000  -1.30260000  -0.51720000
 H  -5.49510000  -0.25890000  -0.01890000
 H  -5.45560000  -2.45690000  -1.70090000
 H  -5.17340000  -3.20160000  -0.13100000

