%nprocshared=48
%mem=90GB
# wb97xd/def2qzvpp scrf=(solvent=diethylether)

active_TS2_conf_1_spc_wb97xd

-2 1
 C   3.19290000   2.59660000   4.23710000
 C   3.35610000   3.93890000   3.56010000
 O   2.73290000   4.93660000   3.94350000
 N   4.26160000   4.00380000   2.55500000
 C   4.58730000   5.26630000   1.92920000
 C   3.46950000   5.90500000   1.10480000
 O   3.49370000   7.09690000   0.81690000
 N   2.48690000   5.05650000   0.73810000
 C   1.31570000   5.46870000   0.00180000
 C   0.31160000   6.27280000   0.83160000
 O  -0.61320000   6.86420000   0.27460000
 C   0.58090000   4.22840000  -0.53700000
 C  -0.25930000   3.45790000   0.48610000
 C   0.52300000   2.67180000   1.52180000
 N  -0.16120000   2.22030000   2.58800000
 O   1.70670000   2.35710000   1.34030000
 N   0.40810000   6.16410000   2.17170000
 C  -0.59530000   6.77360000   3.01360000
 C  -5.24130000  -2.43820000   2.50120000
 C  -4.84640000  -1.20240000   3.28780000
 O  -5.23920000  -0.97460000   4.42550000
 N  -4.04670000  -0.34270000   2.59000000
 C  -3.35230000   0.77730000   3.21090000
 C  -2.37830000   0.31320000   4.32420000
 O  -2.34660000   0.82300000   5.43610000
 C  -4.25450000   1.93540000   3.67750000
 C  -3.43730000   3.23000000   3.76220000
 C  -5.44960000   2.12640000   2.74420000
 N  -1.53300000  -0.68760000   3.95140000
 C  -0.67790000  -1.32580000   4.90960000
 C   0.80390000  -0.94260000   4.81640000
 O   1.20390000  -0.01030000   4.11130000
 N   1.61880000  -1.68960000   5.58110000
 C   3.06830000  -1.50010000   5.69550000
 C  -3.80960000  -3.83290000  -1.68870000
 C  -3.00520000  -4.69610000  -0.70920000
 O  -2.91730000  -5.91180000  -0.88660000
 C  -3.48150000  -2.34680000  -1.72600000
 N  -2.46020000  -4.07670000   0.38050000
 C  -1.43480000  -4.72940000   1.18380000
 C  -1.58490000  -4.51510000   2.68440000
 C  -0.45340000  -5.20840000   3.46410000
 C   0.90700000  -4.53320000   3.24400000
 C  -0.78770000  -5.31740000   4.95500000
 C   0.68430000  -8.61060000  -0.99900000
 C   1.20850000  -7.25540000  -0.52830000
 C   0.74900000  -6.11720000  -1.43630000
 C   1.51140000  -4.82300000  -1.18890000
 N   1.42210000  -3.90050000  -2.17130000
 O   2.19750000  -4.65200000  -0.17720000
 C   8.88220000  -3.29730000   1.86840000
 C   7.38490000  -3.02390000   1.98090000
 C   7.09470000  -1.66880000   2.63920000
 C   5.61690000  -1.30740000   2.52860000
 O   4.77890000  -2.02820000   3.10480000
 O   5.31180000  -0.28820000   1.81430000
 C  -2.06510000   3.68040000  -4.36350000
 C  -1.13020000   2.83380000  -3.51130000
 O  -1.51470000   2.29910000  -2.45450000
 C  -3.17340000   4.44290000  -3.61400000
 C  -4.29730000   3.53040000  -3.11230000
 C  -2.62410000   5.32010000  -2.48610000
 N   0.10490000   2.63810000  -3.98070000
 C   1.03790000   1.69620000  -3.39930000
 C   2.35240000   1.77480000  -4.18850000
 O   2.37060000   2.28810000  -5.30940000
 N   3.39270000   1.22340000  -3.55300000
 C   4.75580000   1.21470000  -4.04450000
 C   5.17700000  -0.12770000  -4.67700000
 O   5.99900000  -0.15080000  -5.59340000
 C   5.69620000   1.52850000  -2.85240000
 C   7.16990000   1.53530000  -3.23730000
 O   5.31960000   2.78220000  -2.30870000
 N   4.66070000  -1.23530000  -4.10020000
 C   5.16800000  -2.57160000  -4.35830000
 C   5.64390000  -3.23730000  -3.05630000
 C   6.74620000  -2.45340000  -2.38710000
 C   8.05440000  -2.50200000  -2.87030000
 C   6.48220000  -1.60730000  -1.30720000
 C   9.06850000  -1.74090000  -2.29690000
 C   7.47930000  -0.82940000  -0.73070000
 C   8.77590000  -0.89950000  -1.22620000
 O   9.73450000  -0.12170000  -0.62420000
 C  -8.90080000  -0.54800000  -3.79510000
 C  -8.13050000   0.74720000  -3.51400000
 C  -7.13510000   0.58610000  -2.41210000
 C  -5.77700000   0.44950000  -2.45120000
 N  -7.51800000   0.50550000  -1.08870000
 C  -6.43210000   0.33670000  -0.34570000
 N  -5.36090000   0.30420000  -1.14720000
 C -13.97740000  -0.13950000  -2.01220000
 C -13.51760000  -0.12300000  -0.55100000
 C -12.30030000   0.76630000  -0.27960000
 C -10.93030000   0.18260000  -0.67140000
 O -10.84730000  -0.97070000  -1.11830000
 O  -9.94740000   0.98590000  -0.47030000
 N   2.63410000  -0.36240000   1.57910000
 C   2.27300000  -1.28770000   0.47260000
 C   2.77790000  -0.67580000  -0.84250000
 O   3.08110000   0.54790000  -0.82770000
 C   0.76190000  -1.54270000   0.41100000
 C  -0.04260000  -0.34870000  -0.09140000
 C  -1.53200000  -0.50150000   0.10340000
 N  -2.38630000   0.49610000  -0.39680000
 O  -1.97340000  -1.21490000   1.02820000
 O   2.80090000  -1.42070000  -1.84720000
 O  -3.07860000   0.32960000  -3.95370000
 O   4.94830000   2.07980000   0.49800000
 H  -8.21070000  -1.34820000  -4.08490000
 H  -0.41130000  -8.61510000  -1.04120000
 H   9.07480000  -4.27790000   1.41790000
 H   3.57120000   1.76590000   3.63560000
 H   5.44370000   5.10250000   1.26920000
 H  -2.52020000   2.98700000  -5.08450000
 H   0.64210000   0.67360000  -3.46470000
 H   4.38480000  -3.18750000  -4.81770000
 H -13.17290000  -0.50880000  -2.65630000
 H -14.25180000   0.86840000  -2.34980000
 H  -9.61030000  -0.39460000  -4.61620000
 H  -4.87010000  -3.98110000  -1.43470000
 H  -1.48820000  -5.79830000   0.95880000
 H   1.00140000  -9.41570000  -0.32610000
 H   9.36660000  -3.27680000   2.85350000
 H   3.41320000  -2.06980000   6.56040000
 H   3.59440000  -1.82810000   4.79270000
 H  -5.95710000  -2.17110000   1.71510000
 H  -1.58970000   6.38920000   2.76190000
 H  -0.36540000   6.53230000   4.05330000
 H -14.84960000  -0.79020000  -2.14640000
 H  -9.46440000  -0.86880000  -2.91260000
 H   1.05630000  -8.84680000  -2.00360000
 H   5.98850000  -2.47230000  -5.07330000
 H  -0.61500000   7.86140000   2.88760000
 H   3.27520000  -0.43880000   5.85740000
 H   9.36480000  -2.53850000   1.24120000
 H  -0.45120000  -4.37420000   0.85090000
 H  -3.65100000  -4.28170000  -2.67270000
 H  -1.46270000   4.38940000  -4.94510000
 H   1.20270000   1.91200000  -2.34000000
 H   4.86930000   6.00160000   2.68710000
 H   3.74480000   2.62350000   5.18330000
 H   2.14020000   2.42740000   4.46400000
 H -14.35080000   0.22010000   0.07870000
 H -13.27790000  -1.14530000  -0.23950000
 H -12.40550000   1.73770000  -0.78080000
 H -12.23620000   0.99670000   0.79150000
 H  -7.59360000   1.07850000  -4.40980000
 H  -8.83480000   1.54120000  -3.24110000
 H  -8.59000000   0.61660000  -0.76560000
 H  -5.05310000   0.42750000  -3.25880000
 H  -6.40120000   0.25090000   0.72880000
 H  -4.37880000  -2.90880000   2.01420000
 H  -5.71640000  -3.15190000   3.17510000
 H  -2.35840000  -3.06890000   0.32890000
 H  -1.59130000  -3.43790000   2.90820000
 H  -2.55900000  -4.90820000   3.00380000
 H  -0.37760000  -6.23570000   3.07750000
 H   0.00790000  -5.84100000   5.49860000
 H  -0.90980000  -4.32890000   5.41670000
 H  -1.72490000  -5.86270000   5.11400000
 H   1.24060000  -4.58220000   2.20240000
 H   0.87260000  -3.47400000   3.53130000
 H   1.68430000  -5.00980000   3.85270000
 H   2.30330000  -7.26840000  -0.49300000
 H   0.87790000  -7.05500000   0.49750000
 H   0.88280000  -6.39600000  -2.49000000
 H  -0.32670000  -5.93100000  -1.30790000
 H   6.94430000  -3.04220000   0.97840000
 H   6.88610000  -3.81140000   2.55620000
 H   7.36400000  -1.71850000   3.70230000
 H   7.70230000  -0.88590000   2.17520000
 H   5.98730000  -4.25190000  -3.29640000
 H   4.79080000  -3.34050000  -2.37570000
 H   3.96320000  -1.14030000  -3.35920000
 H   1.87360000  -2.99380000  -2.02330000
 H   0.62940000  -3.92010000  -2.79940000
 H   5.38020000   1.30280000   0.90970000
 H   4.14200000   1.67690000   0.11040000
 H  -2.60970000  -0.47120000  -3.61710000
 H  -2.69190000   1.02710000  -3.40240000
 H  -3.94280000   2.87580000  -2.31140000
 H  -5.12860000   4.12700000  -2.71910000
 H  -1.78760000   5.94520000  -2.81870000
 H  -3.40110000   5.98710000  -2.09790000
 H  -3.61300000   5.10910000  -4.37020000
 H   0.40570000   3.02090000  -4.87170000
 H   3.26180000   0.97670000  -2.56510000
 H   0.27910000   1.56370000   3.23420000
 H  -1.06570000   2.59770000   2.82320000
 H   4.86140000   1.98220000  -4.81490000
 H   5.53060000   0.74650000  -2.09970000
 H   7.50440000   0.55350000  -3.58320000
 H   7.35040000   2.26680000  -4.03200000
 H   7.76030000   1.81500000  -2.35880000
 H   8.28860000  -3.14360000  -3.71700000
 H  10.08230000  -1.79680000  -2.69010000
 H   7.24470000  -0.17010000   0.09760000
 H   5.47410000  -1.54360000  -0.90610000
 H  10.55370000  -0.18510000  -1.12850000
 H   5.33100000   2.69570000  -1.33900000
 H   4.55270000   3.15730000   2.06070000
 H   2.57600000   4.07190000   0.96760000
 H   1.24090000   5.76720000   2.59900000
 H   3.69440000  -0.33390000   1.70320000
 H   2.32410000   0.60300000   1.38650000
 H   2.23500000  -0.63630000   2.48190000
 H   2.78420000  -2.23710000   0.65510000
 H   0.57760000  -2.39530000  -0.24640000
 H   0.41470000  -1.83580000   1.40950000
 H   0.21820000   0.54380000   0.49090000
 H   0.18010000  -0.11690000  -1.13460000
 H  -1.98020000   1.07270000  -1.13380000
 H  -2.76770000   1.06530000   0.35450000
 H  -2.27330000   4.70650000  -1.65080000
 H  -4.68580000   2.89540000  -3.91630000
 H  -6.13570000   1.27690000   2.79950000
 H  -6.00940000   3.02440000   3.02630000
 H  -5.13070000   2.25120000   1.70020000
 H  -3.09420000   3.53990000   2.76240000
 H  -4.05020000   4.04880000   4.15290000
 H  -2.57580000   3.12100000   4.42840000
 H  -4.62140000   1.68600000   4.67660000
 H  -2.70640000   1.16620000   2.41030000
 H  -1.55620000  -1.02840000   2.99220000
 H  -0.76950000  -2.41180000   4.80970000
 H  -1.03620000  -1.04640000   5.90580000
 H   1.21490000  -2.49910000   6.02830000
 H  -3.53980000  -0.75280000   1.80400000
 H  -0.09230000   4.55640000  -1.33050000
 H   1.31910000   3.55780000  -0.98700000
 H   1.61640000   6.10580000  -0.83480000
 H  -0.83790000   2.70980000  -0.07100000
 H  -0.99130000   4.11200000   0.97460000
 S  -1.75300000  -1.98270000  -2.16920000
 H  -4.37930000   0.17630000  -0.87370000
 H  -4.16400000  -1.87170000  -2.43900000
 H  -3.70890000  -1.90250000  -0.74300000

