237       
active_TS1 Energy: -3585535.6120392
C 3.239368 2.612487 4.156889
C 3.491464 3.985694 3.579740
O 2.875425 4.976936 3.986905
N 4.452495 4.082283 2.628416
C 4.816659 5.369896 2.079541
C 3.744630 6.051423 1.228338
O 3.804507 7.248913 0.970601
N 2.764930 5.229262 0.800226
C 1.650112 5.664524 -0.006109
C 0.567297 6.416414 0.774920
O -0.323407 7.011761 0.169314
C 0.986302 4.438997 -0.659297
C 0.084421 3.607344 0.258113
C 0.785859 2.749309 1.292975
N 0.019803 2.223614 2.262280
O 1.994880 2.480631 1.211239
N 0.564008 6.261636 2.114151
C -0.525182 6.800806 2.899367
C -5.231739 -2.385768 2.496553
C -4.827188 -1.118332 3.229350
O -5.275656 -0.811700 4.326448
N -3.961882 -0.327263 2.532308
C -3.320130 0.859371 3.083368
C -2.414034 0.513698 4.289272
O -2.473606 1.091956 5.364415
C -4.249881 2.049582 3.381127
C -3.423393 3.342289 3.386899
C -5.378695 2.153752 2.356378
N -1.502481 -0.471796 4.036061
C -0.657961 -0.981480 5.074714
C 0.838382 -0.777768 4.825696
O 1.257974 -0.024776 3.941056
N 1.632437 -1.474043 5.658188
C 3.092524 -1.467562 5.658495
C -3.820425 -3.833873 -1.682527
C -2.843459 -4.606184 -0.809316
O -2.619877 -5.791419 -1.070097
C -4.123419 -2.370669 -1.411235
N -2.323887 -3.998349 0.286284
C -1.442904 -4.715537 1.193035
C -1.717004 -4.377443 2.655158
C -0.700917 -5.036568 3.601667
C 0.680417 -4.377542 3.504661
C -1.221229 -5.033660 5.041458
C 0.644448 -8.633239 -0.954246
C 1.233487 -7.318925 -0.446270
C 0.841835 -6.146892 -1.341355
C 1.532244 -4.848621 -0.956714
N 1.604734 -3.916611 -1.927330
O 1.979796 -4.651801 0.177549
C 8.884416 -3.342592 1.835583
C 7.472510 -2.803916 2.068330
C 7.470391 -1.388539 2.668281
C 6.059142 -0.804784 2.667165
O 5.321579 -0.977903 3.656072
O 5.690388 -0.208990 1.591866
C -2.034850 3.639515 -4.440910
C -1.125064 2.797718 -3.545470
O -1.495542 2.361353 -2.445872
C -2.930212 4.654936 -3.702828
C -4.130271 3.996309 -3.016681
C -2.134010 5.521600 -2.723673
N 0.101182 2.541007 -4.027908
C 1.059011 1.682319 -3.370431
C 2.351423 1.681095 -4.203023
O 2.344824 2.120708 -5.354167
N 3.405893 1.153561 -3.568740
C 4.754483 1.127250 -4.101652
C 5.143464 -0.222972 -4.733808
O 5.901758 -0.262459 -5.701851
C 5.736704 1.456089 -2.948458
C 7.195382 1.433519 -3.387051
O 5.389754 2.730268 -2.433831
N 4.669128 -1.323195 -4.105580
C 5.158966 -2.659638 -4.388690
C 5.726762 -3.320579 -3.122610
C 6.869672 -2.534420 -2.527837
C 8.140208 -2.569296 -3.103430
C 6.678903 -1.706156 -1.419258
C 9.189174 -1.812790 -2.589177
C 7.711301 -0.936002 -0.897959
C 8.970553 -0.993027 -1.484096
O 9.966971 -0.223211 -0.936696
C -8.895675 -0.538658 -3.810082
C -8.347384 0.875414 -3.577091
C -7.183894 0.825314 -2.645820
C -5.836427 0.839681 -2.873233
N -7.343628 0.552379 -1.307353
C -6.126608 0.399404 -0.770668
N -5.179474 0.578322 -1.691044
C -13.971720 -0.147869 -2.003431
C -13.459562 -0.211778 -0.560293
C -12.207911 0.630623 -0.288666
C -10.853841 0.015420 -0.710310
O -10.825829 -1.129372 -1.196266
O -9.848161 0.773277 -0.493074
N 2.995935 -0.169678 1.665508
C 2.569189 -1.170139 0.653286
C 3.019099 -0.669469 -0.728712
O 3.291591 0.553516 -0.824722
C 1.049975 -1.404401 0.695123
C 0.240460 -0.384205 -0.112254
C -1.192422 -0.269919 0.337586
N -1.871237 0.815117 -0.079068
O -1.707147 -1.115237 1.094449
O 3.020781 -1.499665 -1.668033
O -4.971357 -1.691825 -4.855483
O 5.126020 2.229794 0.437903
H -8.115301 -1.197107 -4.209948
H -0.448524 -8.573755 -1.011354
H 8.857818 -4.364523 1.440804
H 3.550076 2.621377 5.206675
H 5.705277 5.232677 1.457372
H -2.662627 2.934177 -5.001883
H 0.677471 0.655145 -3.298459
H 4.348772 -3.280371 -4.793456
H -13.198986 -0.505181 -2.691979
H -14.231391 0.881403 -2.284000
H -9.717419 -0.514623 -4.534968
H -4.748237 -4.414893 -1.593445
H -1.600960 -5.781754 1.014473
H 0.906227 -9.468414 -0.294559
H 9.465825 -3.352560 2.766346
H 3.455384 -1.341671 6.681954
H 3.488458 -2.393970 5.234679
H -5.999886 -2.150903 1.750981
H -0.373866 6.513484 3.941566
H -0.568016 7.892536 2.824013
H -14.864586 -0.770607 -2.136909
H -9.290648 -0.963030 -2.881129
H 1.017119 -8.869946 -1.958452
H 5.927218 -2.562470 -5.159844
H -1.481968 6.401149 2.547064
H 3.459595 -0.648562 5.041311
H 9.416411 -2.715423 1.110522
H -0.397201 -4.498376 0.946163
H -3.496301 -3.965926 -2.719556
H -1.414033 4.165781 -5.175854
H 1.257830 2.025619 -2.349907
H 5.061716 6.066274 2.885311
H 2.170444 2.399250 4.128160
H 3.785375 1.818150 3.640479
H -14.262880 0.121312 0.112887
H -13.236813 -1.253700 -0.306639
H -12.289850 1.616238 -0.766361
H -12.123530 0.835486 0.786284
H -8.021842 1.327408 -4.520889
H -9.134350 1.507958 -3.152987
H -8.319833 0.512687 -0.861980
H -5.288475 0.985568 -3.792648
H -5.942971 0.165691 0.267770
H -4.389098 -2.855238 1.976550
H -5.654710 -3.089522 3.214705
H -2.298221 -2.984505 0.334353
H -1.690116 -3.286612 2.796701
H -2.734705 -4.702757 2.909019
H -0.591460 -6.087118 3.293491
H -0.490549 -5.474926 5.729932
H -1.433370 -4.012681 5.383907
H -2.155252 -5.600198 5.127779
H 1.382506 -4.835052 4.212396
H 1.116259 -4.466242 2.504395
H 0.616041 -3.308667 3.747043
H 2.326246 -7.390872 -0.391685
H 0.890958 -7.116728 0.574449
H 1.072513 -6.380146 -2.389726
H -0.245588 -5.989839 -1.292691
H 6.937741 -2.789008 1.112673
H 6.914822 -3.473119 2.735117
H 7.846566 -1.422922 3.696563
H 8.131660 -0.744443 2.077914
H 6.055177 -4.334849 -3.385163
H 4.923482 -3.424137 -2.383788
H 4.045533 -1.215857 -3.303632
H 1.206768 -4.088554 -2.836740
H 2.099964 -3.032955 -1.764283
H 5.584797 1.438172 0.790167
H 4.299292 1.842357 0.085735
H -4.212459 -1.579594 -4.247122
H -5.724477 -1.370871 -4.343356
H -3.806445 3.277976 -2.259063
H -4.755867 4.753804 -2.530568
H -1.236558 5.946428 -3.189035
H -2.740353 6.354246 -2.353348
H -3.323488 5.315004 -4.489338
H 0.396297 2.860584 -4.944555
H 3.313259 0.957894 -2.565512
H 0.393256 1.524238 2.903995
H -0.963204 2.441482 2.308237
H 4.840849 1.882774 -4.886403
H 5.588765 0.697421 -2.167769
H 7.504889 0.437921 -3.717312
H 7.355529 2.140885 -4.207406
H 7.822244 1.727619 -2.539057
H 8.317227 -3.195348 -3.975287
H 10.172570 -1.856583 -3.054380
H 7.523757 -0.295133 -0.043344
H 5.700861 -1.646508 -0.948973
H 10.748250 -0.271090 -1.499499
H 5.458664 2.692397 -1.463011
H 4.746049 3.256831 2.103693
H 2.837791 4.236590 0.999760
H 1.367781 5.855065 2.584233
H 4.061609 -0.135042 1.702420
H 2.653152 0.777638 1.429457
H 2.644802 -0.387773 2.605153
H 3.079173 -2.108242 0.885422
H 0.854296 -2.412530 0.323828
H 0.728260 -1.395110 1.741910
H 0.700266 0.609166 -0.091392
H 0.209826 -0.678198 -1.170094
H -1.568151 1.285045 -0.935796
H -2.880053 0.749890 -0.018306
H -1.821276 4.937775 -1.852538
H -4.756580 3.461546 -3.739684
H -6.061896 1.302449 2.419576
H -5.964711 3.061658 2.534381
H -4.987211 2.211277 1.332022
H -3.038902 3.557440 2.378023
H -4.043984 4.195413 3.680112
H -2.584538 3.287861 4.087544
H -4.680686 1.898597 4.374569
H -2.642841 1.175440 2.279611
H -1.473223 -0.891252 3.110540
H -0.848335 -2.049894 5.233896
H -0.929639 -0.452966 5.994735
H 1.173322 -2.119151 6.284732
H -3.429277 -0.770640 1.787666
H 0.367026 4.794452 -1.485217
H 1.773437 3.807976 -1.086076
H 2.008303 6.345240 -0.783649
H -0.474063 2.914876 -0.379494
H -0.673683 4.233071 0.742515
S -2.983419 -1.218518 -2.254951
H -4.052225 -0.046668 -1.860208
H -5.138494 -2.167321 -1.771026
H -4.139849 -2.167849 -0.332563
