237       
active_TS3 Energy: -3585533.4317199
C -3.809790 -3.832767 -1.688920
C -2.911835 -4.673129 -0.773400
O -2.654093 -5.837540 -1.094552
C -3.720870 -2.321847 -1.574004
N -2.474489 -4.107668 0.376813
C -1.434876 -4.729891 1.183110
C -1.717407 -4.661344 2.677652
C -0.668077 -5.420283 3.507413
C 0.763481 -4.911321 3.289382
C -1.039886 -5.408985 4.993537
C -8.900696 -0.548208 -3.794838
C -8.014174 0.670378 -3.485963
C -7.039246 0.499423 -2.357627
C -5.668777 0.476330 -2.346524
N -7.428560 0.414776 -1.040410
C -6.323269 0.355915 -0.284831
N -5.228189 0.392824 -1.040859
C -13.977334 -0.139426 -2.012282
C -13.558110 -0.244180 -0.543569
C -12.327066 0.591665 -0.184293
C -10.963517 0.030771 -0.645063
O -10.914044 -1.094866 -1.174862
O -9.974979 0.802871 -0.410740
N 2.456140 -0.411819 1.456666
C 2.037037 -1.281262 0.327592
C 2.580101 -0.660334 -0.967204
O 2.955964 0.540141 -0.917924
C 0.519471 -1.512031 0.267414
C -0.346428 -0.309770 -0.121990
C -1.841568 -0.686519 -0.222247
N -2.680723 0.558998 -0.477577
O -2.297987 -1.314366 0.839069
O 2.584736 -1.379112 -1.995108
H -8.285479 -1.408998 -4.081630
H -13.162231 -0.480210 -2.658333
H -14.216997 0.898265 -2.279889
H -9.571995 -0.314461 -4.628914
H -4.845338 -4.142054 -1.493632
H -1.360703 -5.774684 0.867644
H -14.861511 -0.754487 -2.220310
H -9.510223 -0.826507 -2.927631
H -0.475553 -4.253609 0.950305
H -3.577588 -4.162509 -2.706032
H -14.399664 0.070521 0.090985
H -13.347661 -1.292569 -0.306307
H -12.420388 1.612460 -0.578099
H -12.257345 0.703550 0.905644
H -7.434906 0.948586 -4.374569
H -8.661357 1.523595 -3.248019
H -8.452878 0.462058 -0.727226
H -4.972762 0.513252 -3.175228
H -6.325454 0.296041 0.793588
H -2.538285 -3.091403 0.494669
H -1.770691 -3.609299 2.993562
H -2.710128 -5.088570 2.871397
H -0.695431 -6.467596 3.170730
H -0.328943 -6.001091 5.582113
H -1.038887 -4.388156 5.397738
H -2.042903 -5.819049 5.157415
H 1.466956 -5.459776 3.927206
H 1.102140 -5.022013 2.254502
H 0.860703 -3.847616 3.543432
H 3.517359 -0.451154 1.571517
H 2.202395 0.575832 1.293245
H 2.048210 -0.680899 2.356244
H 2.508526 -2.257128 0.477594
H 0.354879 -2.323097 -0.447106
H 0.188543 -1.897560 1.239464
H -0.283541 0.452721 0.663250
H 0.001236 0.147129 -1.057158
H -2.298738 1.101854 -1.261749
H -2.611262 1.150411 0.353978
S -2.037065 -1.682708 -1.856992
H -3.921016 0.402332 -0.705250
H -4.409702 -1.861546 -2.285192
H -4.022343 -1.989118 -0.576557
C 3.192671 2.595095 4.238366
C 3.372709 3.929700 3.551623
O 2.777403 4.943263 3.935911
N 4.266770 3.969947 2.533488
C 4.607542 5.224849 1.900330
C 3.487328 5.884519 1.095620
O 3.525601 7.075890 0.808050
N 2.487678 5.050398 0.740724
C 1.323575 5.472443 -0.001078
C 0.302529 6.254949 0.830516
O -0.627063 6.836093 0.270451
C 0.611430 4.240251 -0.586056
C -0.246647 3.438986 0.399149
C 0.525818 2.664421 1.451860
N -0.149412 2.255234 2.538552
O 1.704837 2.333365 1.266843
N 0.399982 6.150186 2.170638
C -0.595767 6.772527 3.015148
C -5.241684 -2.439254 2.500970
C -4.808399 -1.232344 3.314362
O -5.099795 -1.079087 4.495953
N -4.077534 -0.333239 2.597185
C -3.332970 0.751661 3.216327
C -2.271510 0.225764 4.213510
O -2.128123 0.676723 5.342607
C -4.191712 1.881898 3.813086
C -3.363166 3.167640 3.918380
C -5.445393 2.129070 2.973485
N -1.480600 -0.769042 3.722116
C -0.610769 -1.493306 4.604910
C 0.839461 -0.993878 4.678532
O 1.232256 0.001060 4.060979
N 1.637628 -1.738265 5.466922
C 3.068002 -1.501940 5.695853
C 0.684693 -8.610691 -1.000625
C 1.241150 -7.255624 -0.576609
C 0.772964 -6.145497 -1.512379
C 1.442507 -4.815246 -1.221035
N 1.539745 -3.968705 -2.267245
O 1.874258 -4.533587 -0.100279
C 8.882497 -3.297963 1.868734
C 7.368924 -3.073503 1.901475
C 6.987654 -1.735793 2.552700
C 5.493185 -1.438236 2.411307
O 4.679598 -2.157516 3.021264
O 5.156170 -0.465917 1.645935
C -2.065443 3.680814 -4.361860
C -1.125476 2.792791 -3.564687
O -1.529382 2.104249 -2.606375
C -3.156614 4.420186 -3.562322
C -4.291572 3.503482 -3.099382
C -2.582507 5.221872 -2.392429
N 0.144758 2.718412 -3.969831
C 1.080244 1.757533 -3.425918
C 2.395422 1.854201 -4.210711
O 2.428350 2.429109 -5.300579
N 3.415606 1.239660 -3.600464
C 4.785835 1.222676 -4.066656
C 5.207889 -0.127232 -4.682559
O 6.057098 -0.165480 -5.572380
C 5.706749 1.530933 -2.855962
C 7.185397 1.558475 -3.219930
O 5.311147 2.770726 -2.296084
N 4.660994 -1.230042 -4.119580
C 5.167889 -2.571124 -4.358501
C 5.621460 -3.229542 -3.045144
C 6.728411 -2.453168 -2.375551
C 8.041198 -2.537511 -2.841358
C 6.466009 -1.578095 -1.318816
C 9.062205 -1.781353 -2.274443
C 7.470963 -0.804212 -0.750917
C 8.771798 -0.908371 -1.228486
O 9.735671 -0.132232 -0.634365
O -3.079165 0.392775 -4.344663
O 4.862342 1.991186 0.479250
H -0.411243 -8.592721 -1.019703
H 9.129256 -4.265867 1.417522
H 3.806538 2.592666 5.146111
H 5.448036 5.043611 1.224434
H -2.538661 3.024738 -5.105630
H 0.682218 0.738960 -3.521864
H 4.389897 -3.187215 -4.827277
H 0.999527 -9.405092 -0.314103
H 9.310367 -3.275992 2.879426
H 3.668133 -1.847796 4.847002
H 3.227137 -0.429325 5.832108
H -5.921792 -3.049949 3.095618
H -0.365900 6.529849 4.054335
H -0.603091 7.860279 2.887058
H 1.029906 -8.881356 -2.006258
H 5.999772 -2.479463 -5.060925
H -1.594003 6.397909 2.765891
H 3.353798 -2.027542 6.609313
H 9.373542 -2.515299 1.278428
H -1.467327 4.411139 -4.920774
H 1.249072 1.932240 -2.359525
H 4.918516 5.954980 2.651813
H 2.150218 2.472457 4.532979
H 3.491256 1.749830 3.613004
H -5.741848 -2.129699 1.576900
H -4.369264 -3.038372 2.214243
H 2.337146 -7.285319 -0.560023
H 0.928556 -7.016743 0.445699
H 0.965024 -6.427774 -2.556491
H -0.315038 -6.013515 -1.421006
H 6.985440 -3.098499 0.875598
H 6.869868 -3.884189 2.443958
H 7.230691 -1.776275 3.622426
H 7.570184 -0.923825 2.106874
H 5.952415 -4.251620 -3.270957
H 4.759970 -3.314287 -2.372264
H 3.926261 -1.126375 -3.417264
H 1.054340 -4.173091 -3.126344
H 1.902738 -3.017922 -2.128366
H 5.251156 1.176054 0.862625
H 4.031872 1.648399 0.088387
H -2.771076 -0.470390 -4.029627
H -2.667346 0.994715 -3.701846
H -3.950610 2.809412 -2.327160
H -5.112894 4.092927 -2.676785
H -1.742162 5.857226 -2.693982
H -3.345592 5.872303 -1.952961
H -3.587662 5.134497 -4.278063
H 0.472276 3.196748 -4.803290
H 3.262334 0.964140 -2.623011
H 0.286149 1.598949 3.189045
H -1.059369 2.626238 2.764178
H 4.910359 1.986642 -4.837696
H 5.537424 0.735799 -2.118128
H 7.533885 0.586965 -3.580710
H 7.369304 2.307916 -3.996960
H 7.761407 1.826139 -2.328279
H 8.273677 -3.203685 -3.669364
H 10.079371 -1.865602 -2.653313
H 7.238885 -0.120440 0.057383
H 5.457680 -1.486577 -0.922551
H 10.562024 -0.226695 -1.121830
H 5.284357 2.656715 -1.329188
H 4.532226 3.114493 2.040531
H 2.571716 4.063667 0.962049
H 1.239417 5.764505 2.594886
H -2.232809 4.552625 -1.599503
H -4.693007 2.908589 -3.926898
H -6.128013 1.276529 3.014708
H -5.983077 3.006838 3.348343
H -5.194528 2.316496 1.920891
H -3.087497 3.534193 2.916487
H -3.944302 3.964168 4.394801
H -2.459459 3.018297 4.517329
H -4.490487 1.574072 4.818889
H -2.756080 1.185027 2.385752
H -1.617328 -1.082768 2.757529
H -0.592756 -2.541144 4.296448
H -1.033018 -1.448989 5.614944
H 1.242968 -2.589389 5.839946
H -3.624902 -0.710785 1.753077
H -0.042414 4.580975 -1.389997
H 1.367982 3.586036 -1.029510
H 1.634720 6.132886 -0.815655
H -0.780696 2.680589 -0.189347
H -1.011630 4.071236 0.865205
