237       
active_int4 Energy: -3585545.3282389
C 3.192669 2.596278 4.237633
C 3.433554 3.964530 3.639858
O 2.859388 4.970520 4.069818
N 4.321579 4.038222 2.616350
C 4.659497 5.305843 2.009727
C 3.575557 5.947789 1.143944
O 3.673384 7.117573 0.782724
N 2.552127 5.132647 0.822684
C 1.427334 5.541985 0.019324
C 0.292355 6.186466 0.828405
O -0.687709 6.656932 0.246118
C 0.890169 4.355439 -0.806497
C -0.077916 3.399657 -0.105183
C 0.471334 2.516246 1.000198
N -0.406701 1.650012 1.519270
O 1.651782 2.567536 1.387143
N 0.410539 6.164624 2.168522
C -0.595487 6.773441 3.014307
C -5.241421 -2.438466 2.501185
C -4.510479 -1.385653 3.301322
O -4.324763 -1.497579 4.511490
N -4.034897 -0.343987 2.578057
C -3.347296 0.795849 3.163197
C -2.269498 0.335008 4.163344
O -2.128726 0.831992 5.269340
C -4.270933 1.876182 3.764426
C -3.522994 3.213785 3.806726
C -5.562502 2.009444 2.954806
N -1.428984 -0.641724 3.698056
C -0.623049 -1.374608 4.635251
C 0.859539 -0.985054 4.647423
O 1.299438 -0.092489 3.920437
N 1.629024 -1.700990 5.490078
C 3.068016 -1.500489 5.695612
C -3.809590 -3.832991 -1.688709
C -2.877522 -4.699833 -0.830058
O -2.475285 -5.786129 -1.245532
C -3.528052 -2.323322 -1.640464
N -2.545776 -4.207939 0.392520
C -1.434943 -4.729502 1.183749
C -1.721321 -4.660513 2.678627
C -0.658688 -5.374037 3.529437
C 0.752779 -4.807797 3.332766
C -1.062238 -5.361710 5.007106
C 0.684319 -8.610512 -0.999262
C 1.298454 -7.308110 -0.491050
C 0.978679 -6.130959 -1.409696
C 1.677227 -4.851654 -0.980791
N 1.840584 -3.913683 -1.937967
O 2.058448 -4.673077 0.178080
C 8.882127 -3.297330 1.868725
C 7.427732 -2.842922 1.968205
C 7.297587 -1.428987 2.549397
C 5.854948 -0.935679 2.478264
O 4.989375 -1.533138 3.149657
O 5.601699 0.049605 1.700642
C -2.064930 3.680696 -4.362898
C -1.201985 2.656996 -3.638717
O -1.685336 1.783016 -2.897423
C -3.195661 4.314934 -3.527413
C -4.360653 3.358872 -3.250371
C -2.665353 4.935960 -2.233833
N 0.118063 2.724611 -3.856554
C 1.042702 1.719366 -3.379228
C 2.344380 1.835083 -4.183969
O 2.351335 2.421660 -5.266855
N 3.384117 1.219044 -3.606190
C 4.732523 1.214281 -4.139223
C 5.129842 -0.141522 -4.753047
O 5.867414 -0.192720 -5.736363
C 5.713839 1.580532 -2.997810
C 7.170974 1.558152 -3.441791
O 5.357907 2.862429 -2.515245
N 4.675144 -1.233583 -4.096342
C 5.167975 -2.571572 -4.358191
C 5.759534 -3.206099 -3.087853
C 6.886505 -2.388621 -2.503813
C 8.161134 -2.413688 -3.069983
C 6.674090 -1.541743 -1.412489
C 9.193807 -1.629901 -2.563296
C 7.689248 -0.742810 -0.900706
C 8.953963 -0.791228 -1.477022
O 9.932096 0.007701 -0.940692
C -8.900905 -0.547887 -3.795175
C -7.966980 0.550119 -3.245213
C -7.245570 0.244726 -1.960934
C -5.903755 0.166127 -1.665082
N -7.885842 0.078938 -0.758071
C -6.938987 -0.085073 0.183465
N -5.710329 -0.042992 -0.313511
C -13.977325 -0.139521 -2.012157
C -13.794819 -1.027492 -0.781942
C -12.680178 -0.527209 0.134546
C -11.274172 -0.582627 -0.496464
O -11.040968 -1.460876 -1.352071
O -10.448125 0.279269 -0.058086
N 2.885637 0.008696 1.661941
C 2.608443 -1.066807 0.681357
C 3.034912 -0.571890 -0.704999
O 3.132694 0.673172 -0.858800
C 1.130772 -1.524840 0.679632
C 0.263824 -0.907416 -0.427543
C -1.162694 -1.401518 -0.364284
N -2.926982 1.594071 -0.105791
O -1.804366 -1.453548 0.675080
O 3.188600 -1.435519 -1.601547
O -3.467893 -0.020613 -4.179748
O 5.047877 2.333767 0.298973
H -8.327330 -1.445782 -4.052096
H -0.404262 -8.518682 -1.088621
H 8.953610 -4.319746 1.480284
H 3.266992 2.674470 5.325367
H 5.538433 5.153644 1.377749
H -2.497127 3.163436 -5.230936
H 0.615888 0.720019 -3.528436
H 4.356386 -3.206403 -4.738243
H -13.057020 -0.126316 -2.604122
H -14.210909 0.892939 -1.720941
H -9.402279 -0.188161 -4.701066
H -4.846477 -3.994331 -1.368663
H -1.279711 -5.767002 0.874290
H 0.901678 -9.442854 -0.320435
H 9.374948 -3.272648 2.849229
H 3.249475 -0.557221 6.221539
H 3.438547 -2.330180 6.299772
H -6.166285 -2.701342 3.020528
H -0.299557 6.630534 4.054837
H -0.688735 7.843710 2.801798
H -14.790909 -0.501027 -2.653630
H -9.658394 -0.829262 -3.053973
H 1.078331 -8.873343 -1.988801
H 5.924460 -2.487305 -5.142649
H -1.571560 6.306607 2.848123
H 3.604197 -1.490255 4.742133
H 9.444301 -2.641346 1.193216
H -0.520068 -4.177467 0.936562
H -3.716903 -4.211776 -2.708695
H -1.420675 4.475315 -4.757097
H 1.235663 1.830290 -2.307021
H 4.910788 6.034416 2.784569
H 2.179116 2.270756 3.990388
H 3.899106 1.841732 3.877798
H -14.738520 -1.076389 -0.219037
H -13.551163 -2.044870 -1.105559
H -12.874128 0.500874 0.462445
H -12.641778 -1.142483 1.044318
H -7.204104 0.797845 -3.995315
H -8.556918 1.464297 -3.095514
H -8.931820 0.106326 -0.566290
H -5.065785 0.241384 -2.345619
H -7.186841 -0.229227 1.226054
H -5.474819 -2.119895 1.480998
H -4.619881 -3.339764 2.456068
H -2.783819 -3.242961 0.589343
H -1.811185 -3.608613 2.989313
H -2.700401 -5.119793 2.867319
H -0.639984 -6.424430 3.201481
H -0.336518 -5.913301 5.616410
H -1.116782 -4.336968 5.396312
H -2.048541 -5.815300 5.156672
H 1.464006 -5.315831 3.995015
H 1.118241 -4.926068 2.308018
H 0.795636 -3.738065 3.573684
H 2.385788 -7.414609 -0.398127
H 0.930442 -7.082342 0.515779
H 1.258938 -6.370084 -2.444596
H -0.105517 -5.946557 -1.417005
H 6.979529 -2.866309 0.968409
H 6.846899 -3.533479 2.589279
H 7.607635 -1.442702 3.602163
H 7.954663 -0.737082 2.013705
H 6.110879 -4.214224 -3.343948
H 4.964347 -3.323065 -2.343003
H 4.085644 -1.117561 -3.270691
H 1.489153 -4.061213 -2.870611
H 2.332304 -3.038424 -1.729768
H 5.538667 1.582480 0.688818
H 4.236512 1.902060 -0.037642
H -2.825731 0.532713 -3.695528
H -4.170847 0.584601 -4.440887
H -4.064087 2.543508 -2.586076
H -5.188265 3.893324 -2.771474
H -1.853334 5.648334 -2.413345
H -3.457697 5.471973 -1.701573
H -3.587036 5.128907 -4.153678
H 0.495263 3.327683 -4.580020
H 3.283071 0.975288 -2.613862
H -0.123143 1.052150 2.292404
H -1.333578 1.535985 1.084741
H 4.799518 1.960923 -4.933774
H 5.576167 0.838607 -2.198297
H 7.486447 0.557171 -3.749939
H 7.321300 2.246977 -4.279599
H 7.799327 1.878016 -2.604497
H 8.354953 -3.054218 -3.927619
H 10.181144 -1.666453 -3.020575
H 7.491357 -0.081396 -0.063848
H 5.689764 -1.494248 -0.954863
H 10.720353 -0.043066 -1.493424
H 5.395541 2.838548 -1.541333
H 4.607692 3.203845 2.108253
H 2.554951 4.164155 1.134209
H 1.258805 5.802436 2.592538
H 3.937051 0.122148 1.733424
H 2.461935 0.914396 1.399767
H 2.536090 -0.224190 2.601204
H 3.236140 -1.912548 0.972909
H 1.137803 -2.612404 0.564063
H 0.689414 -1.304359 1.657009
H 0.217911 0.182805 -0.330395
H 0.683654 -1.130573 -1.412300
H -2.516319 1.518247 -1.038485
H -3.325357 2.530968 -0.062097
H -2.283754 4.161443 -1.561526
H -4.746955 2.923835 -4.181432
H -6.184233 1.113265 3.034090
H -6.151657 2.857507 3.320472
H -5.359850 2.176025 1.888950
H -3.278360 3.549688 2.789399
H -4.144792 3.987077 4.271604
H -2.594062 3.135126 4.377074
H -4.519461 1.577258 4.788045
H -2.824811 1.255353 2.319057
H -1.633766 -1.055831 2.793295
H -0.697147 -2.443359 4.415931
H -1.035266 -1.209890 5.636868
H 1.164923 -2.402433 6.047429
H -4.300292 -0.280233 1.598853
H 0.347668 4.767554 -1.661216
H 1.752973 3.808751 -1.202923
H 1.775386 6.317980 -0.669424
H -0.510009 2.729997 -0.859439
H -0.926173 3.960632 0.305842
S -1.785992 -1.873173 -1.947709
H -3.732044 0.960619 -0.098296
H -4.086535 -1.817035 -2.430369
H -3.832671 -1.858160 -0.697480
