237
inactive_val51_TS1_redo_optimized.log	Energy: -3583043.8898092
H         -5.26509       -1.31605        1.04983
H         -4.03408       -1.81038        0.30545
H          2.60932       -0.02662       -3.67679
H          2.74428       -1.47782       -3.28874
N         -4.08444       -3.70919        3.12357
N         -2.28033       -4.93473        1.45147
N          0.36994       -1.66624        2.78663
N         -0.16700       -5.78720        3.00077
C         -3.03575       -2.05193        4.57992
C         -3.17858       -3.48067        4.10516
C         -4.36949       -5.05396        2.67284
C         -3.23995       -5.75758        1.91868
C         -1.09594       -5.39243        0.76596
C         -0.06554       -6.05500        1.68341
C         -0.40779       -4.20481        0.06623
C          0.43435       -3.28636        0.95815
C         -0.34278       -2.37748        1.89149
C          0.84905       -6.26533        3.90902
O         -2.53468       -4.40060        4.62467
O         -3.24153       -6.97542        1.76871
O          0.87598       -6.68519        1.20184
O         -1.56806       -2.22750        1.79764
H         -3.50445       -1.32780        3.90850
H         -5.23922       -5.00897        2.01160
H          1.83571       -5.90144        3.60329
H          0.61847       -5.89464        4.90975
H          0.88644       -7.36006        3.92560
H         -4.61499       -5.69183        3.52563
H         -3.50182       -1.97288        5.56815
H         -1.97794       -1.80713        4.68275
H         -0.07811       -0.89673        3.28811
H          1.37598       -1.72283        2.79871
H         -4.39428       -2.94908        2.51576
H         -2.37466       -3.93314        1.59005
H         -1.00708       -5.35602        3.37722
H          0.25871       -4.60944       -0.69670
H         -1.17431       -3.61646       -0.44735
H         -1.37635       -6.13908        0.01758
H          1.00104       -2.62213        0.29379
H          1.17731       -3.85650        1.52829
N          1.42251        1.62776        3.44834
N         -1.69333        2.64286        4.96917
C          5.23318        2.88906        1.98722
C          3.39108        0.37824        4.09322
C          2.10698        1.12031        4.49119
C          3.92826       -0.54568        5.18970
C          2.95496       -1.70798        5.40799
C          5.32324       -1.06019        4.83204
C          0.34940        2.54348        3.68659
C         -0.88873        1.85968        4.24587
C         -3.00400        2.21437        5.42622
O          1.80471        1.34089        5.66265
O         -1.14760        0.67850        3.98204
H         -3.31502        2.86826        6.24432
H         -3.73365        2.25274        4.60963
H         -2.92731        1.18969        5.79744
H          6.03386       -0.23765        4.70885
H          5.69818       -1.72348        5.61938
H          5.30363       -1.62477        3.89246
H          2.90672       -2.34791        4.51617
H          3.29021       -2.33934        6.23735
H          1.94484       -1.35803        5.64169
H          3.98203        0.03758        6.11693
H          3.21618       -0.21055        3.18448
H          1.71689        1.48086        2.47342
H          0.07594        2.99550        2.72870
H          0.67112        3.34916        4.35815
H         -1.43877        3.61298        5.07477
N          2.36936        4.13826       -0.31708
C          3.70794        3.62332       -2.33533
C          2.86880        4.59550       -1.49781
C          3.48802        2.13638       -2.08786
C          1.34708        4.86700        0.41717
C          1.79344        5.30863        1.80940
C          0.84411        6.33709        2.44598
C         -0.62191        5.88823        2.48933
C          1.33195        6.71994        3.84560
O          2.70723        5.75895       -1.87633
S          1.77086        1.60178       -2.36445
H          4.76158        3.88543       -2.15681
H          1.09241        5.75352       -0.17122
H          0.45046        4.23971        0.46881
H          3.49126        3.87360       -3.37744
H          2.35987        3.13430       -0.15452
H          1.90704        4.43222        2.46466
H          2.79094        5.75881        1.72180
H          0.88835        7.23685        1.81445
H          0.70306        7.50165        4.28817
H          1.30300        5.85009        4.51646
H          2.36505        7.08632        3.82285
H         -1.01556        5.61130        1.50559
H         -0.75236        5.02267        3.15100
H         -1.25451        6.69182        2.88476
H          4.16772        1.58169       -2.74328
H          3.77648        1.88229       -1.05575
N         -1.73209        3.53876       -2.72063
C         -0.90528        8.33565       -2.26761
C         -1.39467        7.05904       -1.58895
C         -0.95206        5.80666       -2.34253
C         -1.63042        4.54649       -1.82696
O         -2.08576        4.47225       -0.68281
H          0.18812        8.34098       -2.34710
H         -1.20960        9.22677       -1.70637
H         -1.31297        8.42294       -3.28237
H         -2.48825        7.06920       -1.51358
H         -1.02286        7.01093       -0.55948
H         -1.17280        5.91516       -3.41264
H          0.13706        5.67823       -2.26625
H         -2.09871        2.63009       -2.42005
H         -1.13043        3.53860       -3.53123
C         -8.91543        3.28999        1.47920
C         -7.40619        3.05916        1.55618
C         -7.04890        1.81522        2.38167
C         -5.56018        1.48465        2.28376
O         -4.73634        2.27845        2.77885
O         -5.23471        0.40931        1.66761
H         -9.14971        4.19532        0.90745
H         -9.35372        3.39823        2.47992
H         -9.40753        2.44329        0.98596
H         -7.01301        2.94444        0.54013
H         -6.90231        3.92889        1.99206
H         -7.29424        2.00064        3.43549
H         -7.64058        0.95875        2.04427
N         -0.05326       -3.20957       -3.61847
N         -3.38138       -1.85077       -3.38936
N         -4.72483        0.47934       -4.22470
C          2.13467       -4.24065       -3.86303
C          1.19022       -3.29398       -3.13083
C          3.28071       -4.84593       -3.03167
C          4.38044       -3.83374       -2.69429
C          2.77868       -5.55971       -1.77394
C         -1.01483       -2.22036       -3.18398
C         -2.32459       -2.45053       -3.95148
C         -4.74893       -1.94295       -3.85659
C         -5.21546       -0.70545       -4.65168
C         -5.66444       -2.11255       -2.61578
C         -7.14343       -2.20509       -2.96857
C         -5.26710        1.76061       -4.63919
C         -5.73919        2.57739       -3.42516
C         -6.81988        1.86766       -2.64715
C         -8.13454        1.83886       -3.11418
C         -6.52939        1.16627       -1.47436
C         -9.13017        1.14183       -2.43663
C         -7.50819        0.45339       -0.79218
C         -8.81182        0.44420       -1.27384
O          1.56214       -2.59548       -2.17070
O         -2.32829       -3.11164       -4.99206
O         -6.04826       -0.81980       -5.55121
O         -5.25006       -3.26943       -1.91013
O         -9.75136       -0.26482       -0.56622
H          2.55432       -3.65915       -4.69578
H         -0.64931       -1.20655       -3.39693
H         -4.50617        2.33059       -5.18750
H         -6.09573        1.55475       -5.32156
H          1.54135       -5.04869       -4.30900
H         -1.17822       -2.28175       -2.10495
H         -6.10313        3.54787       -3.78701
H         -4.87953        2.78002       -2.77612
H         -4.00817        0.49364       -3.49593
H          4.02016       -3.08472       -1.98389
H          5.24148       -4.33995       -2.24263
H          1.95894       -6.25390       -1.99123
H          3.58391       -6.13499       -1.30467
H          3.73087       -5.60444       -3.68849
H         -0.33747       -3.72715       -4.44401
H         -3.24507       -1.47503       -2.44446
H         -4.84570       -2.80912       -4.51564
H         -5.50723       -1.22979       -1.98145
H         -7.50802       -1.28776       -3.43888
H         -7.31780       -3.04255       -3.65226
H         -7.71303       -2.37500       -2.04916
H         -8.38861        2.36731       -4.03048
H        -10.14950        1.13537       -2.81923
H         -7.25343       -0.09454        0.10783
H         -5.51669        1.16602       -1.07930
H        -10.57700       -0.27705       -1.06375
H         -5.23977       -3.04709       -0.96235
H          2.41946       -4.83802       -1.03419
H          4.72844       -3.30534       -3.58878
N          7.66053       -0.68847       -1.25357
N          5.51996       -0.39999       -1.15908
C          8.85866        0.19688       -4.03071
C          8.08385       -1.08119       -3.69084
C          7.17155       -0.85742       -2.53270
C          5.82038       -0.67300       -2.47502
C          6.64758       -0.41342       -0.44376
H          8.16500        1.00330       -4.29322
H          9.52270        0.02566       -4.88600
H          9.46985        0.52520       -3.18251
H          7.48380       -1.41145       -4.54567
H          8.78642       -1.88720       -3.44962
H          8.72166       -0.78291       -0.97914
H          5.03700       -0.71109       -3.22555
H          6.69820       -0.22398        0.61480
H          4.57731       -0.19681       -0.80947
C         13.96857        0.18007       -2.29554
C         13.59916        0.27820       -0.81403
C         12.45563       -0.65030       -0.40268
C         11.04816       -0.22657       -0.86378
O         10.87440        0.89217       -1.37527
O         10.13986       -1.10222       -0.64341
H         13.10624        0.44513       -2.91518
H         14.27868       -0.84022       -2.55682
H         14.79301        0.85808       -2.54734
H         14.48475        0.04333       -0.20603
H         13.31158        1.30966       -0.58381
H         12.63380       -1.67294       -0.75941
H         12.40799       -0.72442        0.69191
O          3.08439       -0.84799       -3.94379
O         -4.83198       -2.14731        0.76481
N         -2.54491        0.44618        1.43084
C         -2.21020        1.20236        0.19583
C         -2.72323        0.39034       -0.99720
O         -2.82265        0.98972       -2.09150
C         -0.71185        1.49924        0.06081
C          0.17765        0.28242       -0.16259
C          1.66430        0.59813       -0.05912
N          2.57289       -0.45063       -0.29792
O          2.05327        1.48119        0.75346
O         -2.96626       -0.83147       -0.80005
H         -2.74396        2.15582        0.24318
H         -0.57387        2.20188       -0.76390
H         -0.38412        2.02441        0.96336
H         -0.00405       -0.44401        0.63638
H         -0.03969       -0.22099       -1.10795
H          2.22002       -1.22818       -0.85119
H          3.06608       -0.70626        0.55195
H         -3.60250        0.43915        1.57117
H         -2.23696       -0.53631        1.37440
H         -2.12978        0.83902        2.28069
N          4.30185        1.44392        3.69140
C          4.81871        1.50943        2.43352
O          4.89794        0.51693        1.71486
H          4.41146        3.29984        1.38539
H          5.43429        3.56786        2.82105
H          6.11568        2.82339        1.34722
H          4.21680        2.31430        4.19678
