237       
inactive_Val51_TS1 Energy: -3585523.5462997
H 5.193434 0.992191 0.911417
H 4.004436 1.523506 0.115870
H -2.729160 -0.446574 -3.646601
H -2.753993 1.043382 -3.489219
N 4.378951 3.908551 2.558672
N 2.485961 4.955144 0.902792
N -1.198573 3.297269 2.165953
N 0.434367 6.178022 2.198295
C 3.238350 2.583788 4.236531
C 3.558602 3.930063 3.636469
C 4.712464 5.126468 1.859074
C 3.569652 5.750243 1.061223
C 1.350066 5.312200 0.084895
C 0.210726 5.952893 0.889242
C 0.876218 4.073093 -0.703323
C -0.238571 3.237857 -0.058459
C -0.097641 2.994857 1.423684
C -0.597419 6.770416 3.019843
O 3.069741 4.978810 4.070761
O 3.658777 6.884000 0.605124
O -0.864583 6.221694 0.350184
O 0.905217 2.497973 1.945471
H 2.954194 2.721438 5.282198
H 5.522826 4.909152 1.158059
H -0.177004 6.987346 4.003455
H -0.965650 7.693526 2.564064
H -1.451580 6.091280 3.137836
H 5.058738 5.886858 2.563415
H 2.387029 2.174685 3.682377
H 4.064536 1.868020 4.160639
H -1.095582 3.310279 3.172352
H -1.884092 3.928699 1.774354
H 4.607011 3.026021 2.092924
H 2.515182 4.013356 1.274356
H 1.319223 5.904431 2.611709
H -2.235264 1.094378 -0.987842
H -2.849987 1.069725 0.569582
H 0.512525 4.381401 -1.686293
H 1.758696 3.449875 -0.878535
H 1.689902 6.082561 -0.614668
H -0.248510 2.260909 -0.544792
H -1.208926 3.692337 -0.267371
N -2.487090 -4.113699 0.388751
N 2.525048 -0.507186 1.566337
C 2.057781 -1.324654 0.404203
C -3.808454 -3.833045 -1.689157
C -2.893790 -4.667369 -0.782787
C -3.649710 -2.318968 -1.599202
C -1.433334 -4.731984 1.185607
C -1.398903 -4.147883 2.594565
C -0.272842 -4.714882 3.472284
C 1.125831 -4.350099 2.958929
C -0.439610 -4.221748 4.913326
C 2.515244 -0.609639 -0.876421
C 0.536154 -1.550076 0.430432
C -0.309516 -0.329459 0.081966
C -1.820076 -0.598847 0.119372
O -2.594449 -5.822021 -1.103633
O -2.275167 -1.320514 1.039143
O 2.564211 -1.282117 -1.924221
O 2.767006 0.629601 -0.776936
S -1.951669 -1.753610 -1.927944
H -4.843983 -4.114785 -1.447602
H -1.610721 -5.811550 1.214370
H -0.467592 -4.580000 0.682752
H -3.611304 -4.181887 -2.706376
H -2.531809 -3.098301 0.491093
H -1.307274 -3.055500 2.536158
H -2.367068 -4.353233 3.074110
H -0.362617 -5.812439 3.470950
H 0.344976 -4.626332 5.565012
H -0.376122 -3.127139 4.948194
H -1.410730 -4.517285 5.329065
H 1.898165 -4.806061 3.590706
H 1.307659 -4.683895 1.932142
H 1.265914 -3.263634 2.998385
H 0.310942 -2.351180 -0.277839
H 0.249557 -1.913880 1.421618
H -0.129985 0.454908 0.832728
H -0.030559 0.082913 -0.893690
H -4.344172 -1.856764 -2.308255
H -3.936187 -1.959022 -0.600116
H 2.565313 -2.291246 0.468701
H 3.580851 -0.559326 1.659630
H 2.269566 0.474907 1.407341
H 2.081201 -0.809084 2.446798
N 1.128693 -3.799398 -2.102908
C 0.685011 -8.610878 -1.000426
C 1.272554 -7.250013 -0.627588
C 0.850708 -6.162233 -1.609713
C 1.648951 -4.871686 -1.469743
O 2.730379 -4.826313 -0.876566
H -0.409649 -8.567118 -1.037659
H 0.970908 -9.381600 -0.274856
H 1.039743 -8.931574 -1.988056
H 2.365649 -7.300760 -0.597136
H 0.948766 -6.967930 0.382508
H 1.012298 -6.512176 -2.640143
H -0.224948 -5.960981 -1.522406
H 0.157833 -3.766571 -2.388581
H 1.640590 -2.915597 -2.063234
C 8.881122 -3.298813 1.873996
C 7.423427 -2.839398 2.058003
C 7.303699 -1.438709 2.680259
C 5.883995 -0.842297 2.684595
O 5.381166 -0.489838 3.770305
O 5.304750 -0.711275 1.547163
H 8.920146 -4.312099 1.459754
H 9.424104 -3.297014 2.827717
H 9.406047 -2.629459 1.182191
H 6.921043 -2.841392 1.086608
H 6.887212 -3.559220 2.690375
H 7.670417 -1.448464 3.711966
H 7.946166 -0.749053 2.115984
N 0.138871 2.685376 -3.991447
N 3.406739 1.240362 -3.517879
N 4.671718 -1.235041 -4.063727
C -2.065208 3.681232 -4.356952
C -1.121971 2.806403 -3.553220
C -2.998315 4.603772 -3.551754
C -4.039885 3.850564 -2.717061
C -2.208254 5.599578 -2.702396
C 1.053647 1.708649 -3.439333
C 2.390728 1.811790 -4.179011
C 4.782794 1.218658 -3.963871
C 5.209264 -0.118927 -4.606305
C 5.697496 1.496401 -2.743547
C 7.174220 1.552244 -3.111555
C 5.167831 -2.571440 -4.356003
C 5.698247 -3.261095 -3.089498
C 6.834768 -2.489856 -2.465651
C 8.109279 -2.506516 -3.034436
C 6.632101 -1.684397 -1.343363
C 9.151578 -1.752907 -2.503219
C 7.658021 -0.913492 -0.809946
C 8.920417 -0.950330 -1.388572
O -1.517664 2.177636 -2.558323
O 2.455073 2.356210 -5.283111
O 6.057176 -0.130984 -5.498611
O 5.292942 2.716810 -2.143859
O 9.907340 -0.176461 -0.826025
H -2.669281 2.984471 -4.954798
H 0.654313 0.692918 -3.560787
H 4.362508 -3.175167 -4.791817
H 5.956625 -2.460617 -5.103642
H -1.486967 4.286534 -5.066402
H 1.193268 1.865061 -2.367386
H 6.026489 -4.271665 -3.365532
H 4.879424 -3.382347 -2.370309
H 3.932027 -1.146406 -3.365836
H -3.569794 3.305602 -1.894644
H -4.765617 4.555618 -2.295174
H -1.475226 6.150520 -3.304297
H -2.872266 6.330712 -2.229431
H -3.547914 5.176410 -4.312906
H 0.450710 3.115125 -4.855469
H 3.223351 0.978329 -2.545836
H 4.921231 1.995717 -4.719512
H 5.538263 0.676014 -2.029419
H 7.528424 0.601578 -3.518415
H 7.344235 2.337899 -3.855343
H 7.754689 1.785183 -2.213134
H 8.293572 -3.115595 -3.916698
H 10.137725 -1.782901 -2.963881
H 7.467914 -0.279500 0.048079
H 5.658428 -1.648358 -0.861170
H 10.690324 -0.209971 -1.387398
H 5.289310 2.576170 -1.181042
H -1.668183 5.100875 -1.892421
H -4.589967 3.121603 -3.322717
N -7.638227 0.821211 -1.270499
N -5.500481 0.520020 -1.103170
C -8.900478 -0.548639 -3.794354
C -8.053953 0.729350 -3.737863
C -7.144787 0.723549 -2.554614
C -5.796302 0.535427 -2.449315
C -6.630808 0.693108 -0.416262
H -8.253523 -1.429028 -3.876733
H -9.563565 -0.528895 -4.667198
H -9.517960 -0.656160 -2.895435
H -7.443842 0.830707 -4.642021
H -8.712490 1.604476 -3.685392
H -8.684085 0.988786 -1.021471
H -5.018513 0.410118 -3.195885
H -6.694942 0.701215 0.657742
C -13.978889 -0.138716 -2.012529
C -13.595140 0.072800 -0.546925
C -12.436875 1.052008 -0.353050
C -11.043554 0.526846 -0.751860
O -10.895086 -0.676448 -1.027512
O -10.123886 1.415277 -0.738842
H -13.125906 -0.540399 -2.567893
H -14.279378 0.807905 -2.480891
H -14.814287 -0.842843 -2.109575
H -14.471366 0.441343 0.006199
H -13.314978 -0.890633 -0.107675
H -12.616608 1.984560 -0.903533
H -12.363619 1.342127 0.703592
N -2.665170 0.516778 -0.266974
O -3.133308 0.350129 -4.054808
O 4.811737 1.837620 0.580452
N -4.173736 -0.712576 3.802955
N -1.112704 0.914612 4.333637
N 1.962091 -0.420582 5.810522
C -5.344144 -2.387715 2.468000
C -4.851548 -0.972442 2.653855
C -3.505344 0.556828 3.999138
C -2.237342 0.320790 4.812298
C -4.369676 1.591802 4.775146
C -3.650546 2.941560 4.877296
C -5.753736 1.784141 4.154307
C 0.088862 0.951172 5.119839
C 1.024357 -0.229105 4.872662
C 3.016791 -1.418504 5.684525
O -5.069344 -0.088970 1.829710
O -2.277142 -0.251970 5.896925
O 0.929577 -0.914353 3.853016
H -4.613966 -2.922786 1.848294
H 2.582301 -2.337256 5.282238
H 3.417703 -1.622340 6.679890
H 3.821048 -1.075897 5.023849
H -5.458302 -2.924182 3.414935
H -6.297386 -2.366581 1.936725
H -3.920076 -1.469330 4.421760
H -3.267059 0.958589 3.008064
H -6.310304 0.844863 4.114221
H -6.331920 2.494851 4.756544
H -5.681019 2.171802 3.133646
H -4.497420 1.186576 5.787320
H -3.482962 3.358501 3.875534
H -4.265730 3.658043 5.431653
H -2.683943 2.867002 5.386323
H -1.029479 1.045303 3.333871
H -0.200713 0.992890 6.173397
H 0.636169 1.866399 4.872084
H 1.997026 0.222492 6.586228
H -4.549706 0.375396 -0.707471
