237       
inactive_Val51_ES Energy: -3585549.0564181
H 5.566642 1.474789 0.850668
H 4.284417 1.867616 0.131977
H -4.413171 -1.807543 -4.526016
H -5.768286 -1.196606 -4.168160
N -2.355284 -4.031528 0.297215
C -3.808926 -3.833082 -1.688891
C -2.756208 -4.577893 -0.875986
C -3.825206 -2.308223 -1.699086
C -1.435423 -4.732687 1.185039
C -1.512947 -4.136950 2.589986
C -0.443355 -4.673240 3.554852
C 0.947864 -4.104024 3.253953
C -0.840683 -4.356952 4.998809
O -2.376081 -5.696193 -1.231593
S -2.506258 -1.644097 -2.786692
H -4.773438 -4.167333 -1.284243
H -1.711500 -5.791354 1.188613
H -0.410815 -4.666993 0.797426
H -3.756016 -4.228426 -2.707482
H -2.538495 -3.053763 0.488201
H -1.412800 -3.044383 2.522218
H -2.512875 -4.341631 2.997916
H -0.398494 -5.767282 3.447103
H -0.075388 -4.697798 5.706914
H -0.957166 -3.271468 5.124675
H -1.792974 -4.825346 5.271452
H 1.696011 -4.533987 3.931100
H 1.277094 -4.302996 2.229339
H 0.949919 -3.015350 3.405595
H -4.784751 -1.972341 -2.095339
H -3.740486 -1.864042 -0.705054
H -2.827574 -0.348782 -2.613494
N 1.767869 -3.920959 -2.042014
C 0.683883 -8.612411 -1.000080
C 1.319315 -7.308410 -0.522823
C 0.995343 -6.150613 -1.462597
C 1.688602 -4.855676 -1.073203
O 2.139117 -4.664253 0.060360
H -0.404705 -8.508069 -1.078234
H 0.899360 -9.436521 -0.310584
H 1.061613 -8.896214 -1.990608
H 2.406603 -7.423357 -0.441230
H 0.963563 -7.058542 0.482417
H 1.270455 -6.409398 -2.493496
H -0.089381 -5.970625 -1.465626
H 1.327827 -4.069551 -2.936275
H 2.210525 -3.015281 -1.853790
C 8.881362 -3.302078 1.874667
C 7.468545 -2.763502 2.107955
C 7.464366 -1.359571 2.734395
C 6.054996 -0.768362 2.730869
O 5.317906 -0.926750 3.723942
O 5.691412 -0.179557 1.651427
H 8.853787 -4.315563 1.460516
H 9.455867 -3.331785 2.809459
H 9.420846 -2.662222 1.166941
H 6.941715 -2.728945 1.148816
H 6.904515 -3.444745 2.757279
H 7.832124 -1.413140 3.764479
H 8.131154 -0.706559 2.160363
N 0.116612 2.683046 -3.903161
N 3.407078 1.233332 -3.543627
N 4.681849 -1.232735 -4.078669
C -2.065543 3.679816 -4.357509
C -1.182092 2.728160 -3.548519
C -2.957560 4.619111 -3.517903
C -4.165666 3.905378 -2.908211
C -2.154117 5.359926 -2.446883
C 1.058863 1.742767 -3.338760
C 2.362258 1.809790 -4.151896
C 4.760176 1.216408 -4.065610
C 5.156951 -0.130997 -4.702833
C 5.733973 1.538070 -2.903164
C 7.195163 1.526783 -3.333530
C 5.168674 -2.572033 -4.355327
C 5.735661 -3.229125 -3.086662
C 6.877989 -2.442033 -2.491565
C 8.144399 -2.463104 -3.077085
C 6.691350 -1.628773 -1.371471
C 9.193780 -1.708222 -2.559995
C 7.724814 -0.861593 -0.846883
C 8.979995 -0.905134 -1.443130
O -1.621673 2.026067 -2.626022
O 2.369299 2.332821 -5.267034
O 5.921398 -0.165610 -5.666396
O 5.380005 2.804016 -2.375125
O 9.976834 -0.138233 -0.892218
H -2.698247 3.053757 -4.999374
H 0.660704 0.721488 -3.388367
H 4.355520 -3.192813 -4.755267
H 5.936389 -2.481573 -5.128169
H -1.427882 4.279714 -5.019119
H 1.251493 1.958257 -2.282070
H 6.065784 -4.243364 -3.348098
H 4.931431 -3.333869 -2.349260
H 4.049723 -1.127673 -3.283230
H -3.862453 3.109772 -2.223324
H -4.787770 4.617898 -2.354482
H -1.256536 5.836910 -2.858217
H -2.753018 6.141401 -1.971259
H -3.336184 5.366519 -4.230139
H 0.453347 3.157592 -4.732850
H 3.306767 1.003028 -2.548965
H 4.848575 1.977899 -4.844641
H 5.586600 0.769785 -2.132735
H 7.512439 0.535110 -3.669805
H 7.356420 2.240770 -4.148129
H 7.816182 1.818076 -2.481050
H 8.317752 -3.076314 -3.958254
H 10.174270 -1.741181 -3.033276
H 7.541127 -0.233631 0.018020
H 5.717056 -1.580560 -0.892716
H 10.752440 -0.172109 -1.463959
H 5.440018 2.753488 -1.404087
H -1.843107 4.670650 -1.655887
H -4.792856 3.449722 -3.682249
N -7.349534 0.601703 -1.443837
N -5.127258 0.705975 -1.491440
C -8.900813 -0.548196 -3.794801
C -8.041199 0.720867 -3.838901
C -7.002994 0.722835 -2.764049
C -5.626848 0.784506 -2.774044
C -6.202199 0.596591 -0.732365
H -8.279598 -1.439902 -3.942440
H -9.651703 -0.528830 -4.593064
H -9.427790 -0.651779 -2.840726
H -7.539095 0.813192 -4.809459
H -8.687971 1.599598 -3.723191
H -8.337313 0.593161 -1.084160
H -4.971394 0.924068 -3.625373
H -6.192562 0.496171 0.341178
C -13.978081 -0.139122 -2.012349
C -13.553745 -0.027405 -0.546472
C -12.289805 0.808187 -0.329389
C -10.949327 0.135086 -0.716130
O -10.948324 -1.073794 -1.024229
O -9.941208 0.907009 -0.658769
H -13.178101 -0.604425 -2.596361
H -14.182034 0.851834 -2.439934
H -14.884573 -0.747121 -2.122498
H -14.379141 0.413693 0.033269
H -13.377442 -1.032729 -0.148043
H -12.354938 1.761002 -0.869350
H -12.200213 1.077390 0.731667
O -5.345438 -1.803677 -4.795201
O 5.100622 2.262507 0.500257
N 2.995532 -0.189324 1.669615
C 2.606574 -1.175208 0.627249
C 3.034033 -0.624978 -0.738004
O 3.039178 -1.429529 -1.699638
C 1.100280 -1.462929 0.655738
C 0.233668 -0.434213 -0.075557
C -1.148111 -0.298389 0.540329
N -2.008475 0.518279 -0.085953
O -1.441341 -0.891230 1.594179
O 3.283072 0.605416 -0.804603
H 3.148997 -2.100721 0.835635
H 0.942421 -2.455671 0.226164
H 0.777213 -1.527592 1.697746
H 0.702299 0.556525 -0.073205
H 0.116995 -0.701621 -1.131984
H -3.000668 0.437215 0.137353
H -1.782495 0.924187 -0.991461
H 4.058892 -0.132460 1.727724
H 2.638831 0.756634 1.451867
H 2.632240 -0.439223 2.595918
N -4.455750 -0.298669 3.372169
N -1.475649 0.040666 4.313763
N 1.586727 -1.192077 5.842780
C -5.343848 -2.387810 2.467632
C -4.647787 -1.067652 2.270189
C -3.576330 0.862468 3.371112
C -2.651457 0.653823 4.575422
C -4.293851 2.219920 3.425066
C -3.270121 3.347051 3.249684
C -5.379113 2.318186 2.354882
C -0.622619 -0.321947 5.413309
C 0.816920 -0.524928 4.968907
C 3.016335 -1.417484 5.684041
O -4.275341 -0.727796 1.154269
O -2.998841 0.969651 5.713120
O 1.230848 -0.057979 3.904403
H -4.667238 -3.179189 2.130082
H 3.215862 -2.402825 5.251620
H 3.502056 -1.341543 6.659649
H 3.449069 -0.674131 5.013314
H -5.635515 -2.585620 3.503696
H -6.232477 -2.418505 1.830287
H -4.829240 -0.601132 4.258999
H -3.006559 0.787764 2.441051
H -6.146346 1.548223 2.486070
H -5.875315 3.293307 2.403913
H -4.957473 2.206725 1.349773
H -4.749612 2.313489 4.418532
H -2.876689 3.349330 2.224437
H -3.741767 4.322614 3.407635
H -2.431195 3.268983 3.950410
H -1.313528 -0.350153 3.380585
H -0.992031 -1.218453 5.931288
H -0.646472 0.490641 6.148090
H 1.125907 -1.609659 6.637335
N 4.399201 4.089531 2.702296
N 2.662184 5.197580 0.894414
N -0.068740 2.090424 2.196513
N 0.449523 6.175924 2.212607
C 3.238809 2.582079 4.236363
C 3.464228 3.967872 3.675539
C 4.724613 5.386215 2.150957
C 3.629718 6.041291 1.307371
C 1.538342 5.599689 0.082063
C 0.418330 6.292941 0.868914
C 0.958101 4.370395 -0.643558
C 0.043160 3.471831 0.193854
C 0.726192 2.661284 1.278716
C -0.596987 6.768793 3.019724
O 2.842270 4.944039 4.109881
O 3.664463 7.238410 1.042159
O -0.503126 6.843904 0.268101
O 1.953610 2.480524 1.297437
H 3.467166 2.604788 5.306627
H 5.610932 5.273091 1.521670
H -0.406648 6.521854 4.064890
H -0.622774 7.857379 2.898561
H -1.573906 6.373022 2.723035
H 4.958006 6.087801 2.955667
H 2.185551 2.320446 4.119590
H 3.854027 1.813719 3.759072
H 0.316608 1.401480 2.841803
H -1.072021 2.139390 2.100140
H 4.699579 3.272579 2.167164
H 2.750053 4.207127 1.102640
H 1.278963 5.806087 2.668203
H 0.372401 4.727203 -1.492324
H 1.794571 3.788225 -1.045857
H 1.882303 6.325978 -0.660254
H -0.434840 2.746477 -0.478090
H -0.779148 4.050643 0.630405
