237       
inactive_int4 Energy: -3585510.5718323
C 0.130775 7.049461 7.020279
C -0.104297 8.394222 6.369385
O -0.926000 9.210270 6.781898
N 0.669630 8.646847 5.276048
C 0.541162 9.877301 4.529677
C -0.707862 10.021196 3.656155
O -0.962223 11.103642 3.136606
N -1.459290 8.908855 3.524720
C -2.662706 8.865086 2.726024
C -3.949779 9.003043 3.563825
O -5.050603 8.864226 3.034143
C -2.707347 7.649077 1.788110
C -2.684193 6.245516 2.432878
C -1.307233 5.761208 2.864516
N -0.741938 4.811852 2.109377
O -0.734952 6.222554 3.869176
N -3.797598 9.342099 4.860435
C -4.942653 9.677610 5.685125
C -4.455635 -5.191660 4.396853
C -3.956853 -3.963765 3.662159
O -4.013554 -3.901869 2.434684
N -3.427679 -2.988514 4.434024
C -2.771556 -1.811063 3.897966
C -1.533553 -1.554045 4.753272
O -1.534981 -1.755962 5.967015
C -3.699381 -0.563964 3.883284
C -2.975811 0.685060 3.363858
C -4.935080 -0.835284 3.022686
N -0.464677 -1.034708 4.102845
C 0.668369 -0.496692 4.815939
C 1.753154 -1.535680 5.109159
O 1.946607 -2.490252 4.355392
N 2.501763 -1.299529 6.203598
C 3.719155 -2.038730 6.508553
C -3.362515 -4.111893 -1.711202
C -2.116990 -4.737887 -1.062219
O -1.270135 -5.319799 -1.747504
C -3.476654 -2.612765 -1.414891
N -1.973162 -4.584322 0.272244
C -0.759537 -5.015371 0.957246
C -0.822501 -4.771369 2.457877
C 0.197529 -5.602314 3.246293
C 1.634809 -5.383194 2.766093
C 0.061284 -5.303016 4.741199
C 2.523368 -7.677438 -1.852439
C 2.991815 -6.256580 -1.554080
C 2.203157 -5.214325 -2.340411
C 2.731646 -3.804391 -2.124247
N 2.004835 -2.804936 -2.681171
O 3.765544 -3.581707 -1.493429
C 9.693669 -1.797687 2.832888
C 8.195220 -1.718203 2.523618
C 7.436620 -0.833362 3.511523
C 5.932505 -0.693884 3.248294
O 5.418837 -1.458116 2.382426
O 5.309544 0.172598 3.921938
C -2.895994 3.985188 -2.580297
C -1.708400 3.796257 -1.643619
O -1.790390 3.906577 -0.417297
C -4.089992 4.773533 -2.019389
C -4.842975 4.034589 -0.907167
C -3.694467 6.189349 -1.588370
N -0.550970 3.395316 -2.240619
C 0.662938 3.166800 -1.481194
C 1.883238 3.403481 -2.374826
O 1.777705 4.055516 -3.412748
N 3.023884 2.891364 -1.882765
C 4.345894 3.329512 -2.289823
C 5.176724 2.296298 -3.073653
O 6.110722 2.687651 -3.775007
C 5.100010 3.739012 -1.005895
C 6.558882 4.122133 -1.203349
O 4.351871 4.829149 -0.463155
N 4.874899 1.001405 -2.866289
C 5.749278 -0.086373 -3.268039
C 6.267923 -0.860881 -2.042971
C 7.036588 0.009889 -1.077791
C 8.378905 0.319908 -1.298715
C 6.423101 0.556277 0.053156
C 9.090219 1.137299 -0.423910
C 7.114347 1.378760 0.935564
C 8.453496 1.666886 0.695940
O 9.105533 2.478106 1.592522
C -8.710893 -1.475036 -3.779647
C -8.168095 -0.131750 -3.271431
C -7.330396 -0.259751 -2.038481
C -6.006853 0.010815 -1.779665
N -7.840832 -0.729733 -0.856376
C -6.834979 -0.721207 0.044576
N -5.700222 -0.280062 -0.467776
C -13.878683 -2.174830 -2.729103
C -13.689394 -2.730644 -1.316911
C -12.718665 -1.905508 -0.472599
C -11.233124 -1.994218 -0.893641
O -10.876020 -2.935418 -1.631345
O -10.490691 -1.083859 -0.409492
N 2.840225 -1.213449 1.948877
C 2.460443 -1.379989 0.528343
C 2.729326 -0.092067 -0.267302
O 2.940706 0.979708 0.360563
C 0.988396 -1.820670 0.376549
C -0.018929 -0.703484 0.042310
C -1.385193 -1.333735 -0.046994
N -2.888996 1.061204 -0.221691
O -1.994825 -1.683208 0.936742
O 2.666739 -0.212956 -1.514354
O 2.926417 1.338159 3.207150
O -2.055162 1.052849 -3.537443
H -12.919080 -2.162264 -3.255010
H -7.884037 -2.152739 -4.023508
H 1.458959 -7.798063 -1.619002
H 10.213058 -2.439634 2.112213
H -0.401851 7.015754 7.971034
H -3.212635 2.978005 -2.880146
H -9.307762 -1.325274 -4.687667
H -14.266958 -1.148073 -2.698966
H -5.462109 10.557517 5.290665
H -4.588910 9.885074 6.696591
H 1.415701 9.991896 3.883527
H 5.203331 -0.773456 -3.924901
H 0.675482 2.159261 -1.051483
H -4.270689 -4.604958 -1.344025
H -0.614608 -6.086752 0.761277
H -3.755601 -6.012191 4.206112
H 3.587681 -3.070763 6.180668
H 3.886723 -2.017294 7.587945
H 9.874770 -2.202747 3.837111
H 3.085521 -8.412017 -1.264702
H -14.581743 -2.784295 -3.310907
H -9.345528 -1.962841 -3.030730
H -3.277302 -4.299779 -2.783358
H 0.103170 -4.510363 0.507501
H 2.657875 -7.923027 -2.913310
H 10.154284 -0.802600 2.789006
H -5.653938 8.846807 5.711168
H 4.576228 -1.601584 5.984256
H 0.724448 3.875974 -0.647242
H -2.534325 4.465357 -3.499766
H 6.573602 0.353343 -3.834459
H 0.527921 10.719973 5.224991
H -4.543740 -5.048629 5.477908
H -5.425795 -5.477462 3.984858
H 4.233157 4.203171 -2.936370
H -2.653242 9.763892 2.098789
H -0.248979 6.262165 6.359002
H 1.197803 6.870685 7.185339
H -14.665131 -2.775113 -0.810135
H -13.307638 -3.755002 -1.384075
H -13.009178 -0.847392 -0.464932
H -12.762107 -2.236532 0.574312
H -7.560725 0.352607 -4.046176
H -9.012961 0.537960 -3.064530
H -8.851363 -0.978025 -0.687542
H -6.972842 -1.048857 1.065492
H -5.259813 0.406933 -2.458497
H -2.683521 -4.107636 0.821141
H -0.682079 -3.703816 2.679042
H -1.823676 -5.035940 2.810456
H -0.055269 -6.661751 3.082943
H 0.726209 -5.941651 5.334900
H 0.324163 -4.260094 4.946936
H -0.967674 -5.469829 5.084998
H 2.337606 -5.977350 3.361479
H 1.763927 -5.672903 1.717274
H 1.921322 -4.333447 2.878742
H -3.354661 -3.114367 5.434466
H -2.490413 -2.033416 2.869075
H -5.506691 -1.693471 3.387868
H -5.595372 0.039039 3.029651
H -4.648844 -1.030863 1.983850
H -4.015173 -0.385000 4.921432
H -2.578745 0.512785 2.355424
H -3.684838 1.517185 3.297031
H -2.156564 1.002304 4.017374
H -0.538758 -0.903399 3.103716
H 0.311711 -0.044807 5.746932
H 1.141818 0.288954 4.212337
H 2.339130 -0.436923 6.700675
H 4.057740 -6.150478 -1.780318
H 2.891638 -6.046821 -0.482766
H 2.252887 -5.431317 -3.417194
H 1.137039 -5.250820 -2.074369
H 1.074261 -2.991846 -3.026659
H 2.245242 -1.844811 -2.418110
H 6.905650 -1.677305 -2.404440
H 5.421061 -1.337401 -1.536347
H 8.884685 -0.085192 -2.172354
H 5.384029 0.329178 0.264784
H 6.626594 1.778017 1.819977
H 10.137967 1.361862 -0.616946
H 10.015447 2.602242 1.299082
H 7.755702 -2.721370 2.526359
H 8.049302 -1.328069 1.510420
H 7.550574 -1.217767 4.535936
H 7.859233 0.179026 3.526379
H 3.914477 -1.287860 2.104454
H 2.586749 -0.284593 2.324258
H 2.423185 -1.920074 2.568607
H 3.106173 -2.160643 0.115345
H 0.939330 -2.562897 -0.423487
H 0.672073 -2.331837 1.294477
H -0.060380 0.069904 0.816736
H 0.254156 -0.225586 -0.902418
H -2.956470 1.956744 0.255306
H -2.928622 1.285193 -1.214867
H 2.963489 2.324885 -1.030522
H -0.385587 3.657344 -3.208806
H -4.783598 4.868913 -2.866418
H -4.243915 3.985180 0.006181
H -5.776912 4.558135 -0.673641
H -3.210260 6.736780 -2.406321
H -4.576403 6.759886 -1.275668
H -2.997717 6.156695 -0.744434
H -5.096981 3.008922 -1.197385
H 5.047199 2.886523 -0.314060
H 7.153559 3.266551 -1.531118
H 6.652862 4.919749 -1.945923
H 6.970936 4.468462 -0.247111
H -3.638796 7.731368 1.222210
H -1.883859 7.738071 1.070243
H -3.103920 5.536661 1.711976
H -3.331197 6.229703 3.317380
H 0.175413 4.480811 2.375184
H -1.154796 4.447777 1.250657
H 1.149345 7.864738 4.852407
H -2.865563 9.439398 5.242803
H -1.126636 8.023726 3.910230
S -1.903400 -1.738431 -1.708910
H -3.761902 0.552130 -0.038620
H -4.237807 -2.140535 -2.038967
H -3.750533 -2.405475 -0.376234
H 3.803133 0.983109 3.508594
H 3.055476 1.568364 2.269494
H -1.311901 1.512055 -3.118736
H -2.077613 0.178856 -3.117676
H 4.023904 0.748650 -2.359842
H 4.708974 5.024664 0.410709
