237       
inactive_TS4 Energy: -3585505.2523404
C 0.403505 7.796555 5.929869
C 0.269257 9.049160 5.092585
O -0.506754 9.963209 5.364052
N 1.081915 9.100246 3.999697
C 1.058339 10.226082 3.094417
C -0.158670 10.338373 2.172651
O -0.327922 11.360512 1.514934
N -0.980511 9.268648 2.157317
C -2.166618 9.204008 1.334248
C -3.458686 9.535099 2.107338
O -4.554292 9.406233 1.564504
C -2.280246 7.882579 0.559745
C -2.357394 6.578540 1.384877
C -1.013973 6.066637 1.883796
N -0.491765 5.019414 1.233270
O -0.426593 6.598504 2.843504
N -3.312617 10.022242 3.356385
C -4.450880 10.534410 4.094683
C -4.844671 -4.384896 4.580400
C -4.249997 -3.286839 3.722383
O -4.285699 -3.359693 2.495442
N -3.660104 -2.271106 4.392567
C -2.918339 -1.207299 3.744072
C -1.677285 -0.935098 4.589417
O -1.709461 -0.986071 5.818460
C -3.765135 0.086758 3.583795
C -2.941218 1.251809 3.022266
C -4.967587 -0.179822 2.675033
N -0.566324 -0.572183 3.904007
C 0.581543 -0.005170 4.571788
C 1.597206 -1.050227 5.041239
O 1.800070 -2.080344 4.398398
N 2.276419 -0.734018 6.161425
C 3.436604 -1.479470 6.631083
C -3.486829 -4.108495 -1.562784
C -2.303782 -4.716952 -0.795461
O -1.494470 -5.459223 -1.361936
C -3.523307 -2.580921 -1.460167
N -2.176622 -4.386138 0.507530
C -1.034313 -4.834858 1.293517
C -1.122477 -4.380403 2.743427
C -0.220140 -5.182266 3.689215
C 1.249352 -5.165703 3.260283
C -0.383086 -4.662655 5.119808
C 2.167396 -7.998537 -1.051159
C 2.602971 -6.543148 -0.902037
C 1.935306 -5.634205 -1.930620
C 2.500787 -4.221191 -1.910106
N 1.712858 -3.260029 -2.449464
O 3.620211 -3.969311 -1.462617
C 9.531345 -2.024420 3.193563
C 8.066486 -1.914374 2.745692
C 7.266399 -0.917027 3.583483
C 5.792972 -0.731603 3.189995
O 5.288355 -1.550159 2.371651
O 5.184890 0.235888 3.729045
C -2.493082 3.784379 -3.360367
C -1.338921 3.632152 -2.374186
O -1.480935 3.716906 -1.143620
C -3.701741 4.597070 -2.870268
C -4.486292 3.906508 -1.748946
C -3.306104 6.026786 -2.489422
N -0.143566 3.309712 -2.906981
C 1.018197 3.018608 -2.097778
C 2.275827 3.038166 -2.968596
O 2.260738 3.572368 -4.076823
N 3.348118 2.480745 -2.380513
C 4.715858 2.771692 -2.766117
C 5.503699 1.588614 -3.355564
O 6.507704 1.818098 -4.031683
C 5.436030 3.303030 -1.506955
C 6.922891 3.576586 -1.674117
O 4.732318 4.494463 -1.147939
N 5.086343 0.355023 -3.015731
C 5.902427 -0.829912 -3.217718
C 6.306728 -1.458830 -1.872741
C 7.101870 -0.521006 -0.996072
C 8.474749 -0.354157 -1.180205
C 6.487506 0.226055 0.013338
C 9.215265 0.516479 -0.384436
C 7.209054 1.101593 0.817122
C 8.577953 1.243931 0.617630
O 9.258593 2.114418 1.434548
C -8.591467 -1.433205 -4.138288
C -7.887829 -0.077150 -3.990628
C -7.056422 0.025206 -2.751293
C -5.709186 0.199181 -2.541612
N -7.610796 -0.054079 -1.500019
C -6.606539 0.076211 -0.607263
N -5.430735 0.232498 -1.191127
C -13.824524 -1.703464 -3.219815
C -13.699354 -1.517236 -1.706007
C -12.642334 -0.489422 -1.296915
C -11.167727 -0.931099 -1.457065
O -10.923651 -2.115985 -1.761081
O -10.317816 -0.010768 -1.238402
N 2.709414 -1.182740 1.821434
C 2.272704 -1.444398 0.428503
C 2.700518 -0.296466 -0.504012
O 3.026154 0.809489 0.007644
C 0.746370 -1.686931 0.338154
C -0.110714 -0.497231 -0.135593
C -1.558085 -0.954578 -0.216999
N -2.458755 0.855794 -0.815068
O -2.170194 -1.272858 0.793357
O 2.639062 -0.548765 -1.730479
O 2.942218 1.482029 2.781351
O -1.669043 0.678657 -3.863957
H -12.868443 -2.041738 -3.630798
H -7.853670 -2.242706 -4.191003
H 1.080265 -8.096476 -0.948575
H 10.079481 -2.746509 2.577697
H -0.166119 7.921129 6.851099
H -2.797783 2.760793 -3.613948
H -9.186811 -1.454384 -5.059163
H -14.096062 -0.759405 -3.710947
H -4.896115 11.391870 3.578721
H -4.108942 10.841154 5.084759
H 1.951939 10.192139 2.465292
H 5.340263 -1.565505 -3.803867
H 0.911852 2.056414 -1.582794
H -4.431181 -4.506125 -1.171013
H -0.990855 -5.931612 1.247244
H -4.194819 -5.263802 4.509594
H 3.266537 -2.541108 6.445089
H 3.553850 -1.311265 7.703997
H 9.606247 -2.347044 4.240185
H 2.638699 -8.633549 -0.292341
H -14.591555 -2.446988 -3.470728
H -9.261621 -1.635747 -3.295763
H -3.380775 -4.436152 -2.599212
H -0.110848 -4.476418 0.821498
H 2.444309 -8.392055 -2.037268
H 10.038486 -1.055036 3.107950
H -5.220138 9.763418 4.197536
H 4.339490 -1.163078 6.096941
H 1.144393 3.785220 -1.323772
H -2.100773 4.222766 -4.287694
H 6.780483 -0.523654 -3.790903
H 1.092073 11.153156 3.671594
H -4.948493 -4.108566 5.633922
H -5.821280 -4.657672 4.175042
H 4.696775 3.554616 -3.528129
H -2.079776 10.011118 0.597923
H 0.006739 6.944453 5.366051
H 1.452004 7.590359 6.166329
H -14.674948 -1.210806 -1.299380
H -13.444137 -2.479475 -1.248942
H -12.775257 0.447529 -1.853920
H -12.770536 -0.223704 -0.239036
H -7.238073 0.112849 -4.854007
H -8.645512 0.716726 -3.979145
H -8.644557 -0.145820 -1.319404
H -6.773563 0.047441 0.459953
H -4.925092 0.312932 -3.281184
H -2.846962 -3.766428 0.953556
H -0.883465 -3.310560 2.823111
H -2.156598 -4.496999 3.079624
H -0.569527 -6.226361 3.660189
H 0.190126 -5.270494 5.830077
H -0.024494 -3.630571 5.194006
H -1.436096 -4.678988 5.429018
H 1.865900 -5.733468 3.966862
H 1.389783 -5.610638 2.268859
H 1.633323 -4.141268 3.244175
H -3.609902 -2.288522 5.402133
H -2.640296 -1.553228 2.747702
H -5.606418 -0.977045 3.064573
H -5.575146 0.728172 2.585988
H -4.633539 -0.472676 1.673789
H -4.124199 0.361277 4.586205
H -2.483331 0.963254 2.069067
H -3.594662 2.109863 2.832412
H -2.151240 1.580560 3.705262
H -0.624561 -0.550011 2.894871
H 0.230187 0.594472 5.417704
H 1.115441 0.658763 3.879282
H 2.103655 0.172041 6.568875
H 3.689608 -6.456365 -0.998442
H 2.357308 -6.183547 0.105114
H 2.103009 -6.031426 -2.942600
H 0.848019 -5.612493 -1.780765
H 0.735338 -3.444772 -2.628581
H 2.021238 -2.288738 -2.354494
H 6.890801 -2.362949 -2.084715
H 5.403978 -1.797490 -1.352308
H 8.981876 -0.917281 -1.960543
H 5.422827 0.116343 0.190772
H 6.720000 1.654712 1.613486
H 10.286413 0.626498 -0.546003
H 10.189409 2.116051 1.183577
H 7.583199 -2.896187 2.793936
H 8.026304 -1.609854 1.693892
H 7.278540 -1.214188 4.642806
H 7.734468 0.074614 3.548944
H 3.770505 -1.323501 1.979903
H 2.535996 -0.204885 2.111833
H 2.249312 -1.787660 2.514858
H 2.799369 -2.345003 0.101151
H 0.580609 -2.515313 -0.353786
H 0.379549 -2.032083 1.313020
H -0.058076 0.344059 0.565389
H 0.237076 -0.145911 -1.111402
H -2.285734 1.698414 -0.269468
H -2.241352 1.087562 -1.784473
H 3.209376 2.014147 -1.477561
H 0.031330 3.418899 -3.899038
H -4.371367 4.660322 -3.739401
H -3.900220 3.866521 -0.827073
H -5.412998 4.455089 -1.545279
H -2.806970 6.541005 -3.319954
H -4.188253 6.613740 -2.209505
H -2.620409 6.022149 -1.635607
H -4.760018 2.879975 -2.015796
H 5.299260 2.552378 -0.715862
H 7.475895 2.656136 -1.873156
H 7.096955 4.274728 -2.498115
H 7.315154 4.009309 -0.745068
H -3.196934 7.950959 -0.031253
H -1.443840 7.822943 -0.146062
H -2.827183 5.809936 0.762589
H -3.001295 6.725655 2.259249
H 0.406351 4.672843 1.542063
H -0.917349 4.580255 0.415791
H 1.522249 8.240755 3.702169
H -2.385127 10.107052 3.752628
H -0.715714 8.420570 2.660202
S -1.896763 -1.843036 -1.818776
H -3.467399 0.632249 -0.772164
H -4.263066 -2.156376 -2.141378
H -3.782231 -2.243179 -0.451010
H 3.780458 1.103014 3.157369
H 3.115782 1.586326 1.828085
H -0.709330 0.773376 -3.902897
H -1.823010 -0.208425 -3.489485
H 4.183280 0.225546 -2.555726
H 5.075009 4.792675 -0.297640
